 
ww   csweb11221912302D 0   0.00000     0.00000
 
  5  4  0  0  0  0  0  0  0  0999 V2000
  262.0000  231.0000    0.0000 C   0  0  0  0  0  0  0  0  0  0  0  0
  289.7128  247.0000    0.0000 C   0  0  0  0  0  0  0  0  0  0  0  0
  289.7128  279.0000    0.0000 O   0  0  0  0  0  0  0  0  0  0  0  0
  317.4256  231.0000    0.0000 O   0  0  0  0  0  0  0  0  0  0  0  0
  345.1384  247.0000    0.0000 H   0  0  0  0  0  0  0  0  0  0  0  0
  1  2  1  0  0  0  0
  2  3  2  0  0  0  0
  2  4  1  0  0  0  0
  4  5  1  0  0  0  0
M  END
$$$$
