
     RDKit          3D

  8  8  0  0  0  0  0  0  0  0999 V2000
    1.5515    1.1390   -0.3829 C   0  0  0  0  0  0  0  0  0  0  0  0
    1.9299   -0.2391    0.4586 C   0  0  2  0  0  0  0  0  0  0  0  0
    1.3040   -1.2960   -0.6431 O   0  0  0  0  0  0  0  0  0  0  0  0
    0.4222   -0.9514    0.7077 C   0  0  2  0  0  0  0  0  0  0  0  0
   -0.9396    0.1802   -0.0288 P   0  0  0  0  0  0  0  0  0  0  0  0
   -1.7829    0.0971    1.2600 O   0  0  0  0  0  0  0  0  0  0  0  0
   -0.7216    1.7290   -0.1545 O   0  0  0  0  0  0  0  0  0  0  0  0
   -1.7636   -0.6587   -1.2170 O   0  0  0  0  0  0  0  0  0  0  0  0
  2  1  1  6
  2  3  1  0
  3  4  1  0
  4  5  1  6
  5  6  2  0
  5  7  1  0
  5  8  1  0
  4  2  1  0
M  END
>  <zinc_id>  (1) 
ZINC000001530427

>  <smiles>  (1) 
C[C@@H]1O[C@@H]1P(=O)(O)O

$$$$

     RDKit          3D

 25 28  0  0  0  0  0  0  0  0999 V2000
    1.3676   -2.7421    0.8107 Cl  0  0  0  0  0  0  0  0  0  0  0  0
    1.9372   -1.5994   -0.3716 C   0  0  0  0  0  0  0  0  0  0  0  0
    3.1817   -1.7640   -0.9471 C   0  0  0  0  0  0  0  0  0  0  0  0
    3.5079   -1.0600   -2.0801 C   0  0  0  0  0  0  0  0  0  0  0  0
    2.5578   -0.2494   -2.6657 C   0  0  0  0  0  0  0  0  0  0  0  0
    1.3093   -0.0961   -2.0826 C   0  0  0  0  0  0  0  0  0  0  0  0
    1.1082   -0.5668   -0.7918 C   0  0  0  0  0  0  0  0  0  0  0  0
    0.0016   -0.0886    0.0756 C   0  0  0  0  0  0  0  0  0  0  0  0
   -0.3076    1.3497   -0.2031 C   0  0  0  0  0  0  0  0  0  0  0  0
   -0.5178    1.8277   -1.4885 C   0  0  0  0  0  0  0  0  0  0  0  0
   -0.1755    3.1623   -1.6747 C   0  0  0  0  0  0  0  0  0  0  0  0
   -0.5579    4.0263   -0.6571 C   0  0  0  0  0  0  0  0  0  0  0  0
   -0.9353    3.5059    0.5645 C   0  0  0  0  0  0  0  0  0  0  0  0
   -0.7725    2.1563    0.8232 C   0  0  0  0  0  0  0  0  0  0  0  0
   -1.2609   -0.8249   -0.1483 C   0  0  0  0  0  0  0  0  0  0  0  0
   -2.1052   -0.3889   -1.1627 C   0  0  0  0  0  0  0  0  0  0  0  0
   -3.4010   -0.8729   -1.2971 C   0  0  0  0  0  0  0  0  0  0  0  0
   -3.7008   -2.0458   -0.6560 C   0  0  0  0  0  0  0  0  0  0  0  0
   -2.8630   -2.5359    0.3151 C   0  0  0  0  0  0  0  0  0  0  0  0
   -1.7930   -1.7482    0.7122 C   0  0  0  0  0  0  0  0  0  0  0  0
    0.4323   -0.1307    1.4713 N   0  0  0  0  0  0  0  0  0  0  0  0
   -0.3103   -0.4293    2.5662 C   0  0  0  0  0  0  0  0  0  0  0  0
    0.4965   -0.2452    3.6793 C   0  0  0  0  0  0  0  0  0  0  0  0
    1.4722    0.5851    3.2717 N   0  0  0  0  0  0  0  0  0  0  0  0
    1.3284    0.7749    1.9368 C   0  0  0  0  0  0  0  0  0  0  0  0
  1  2  1  0
  2  3  2  0
  3  4  1  0
  4  5  2  0
  5  6  1  0
  6  7  2  0
  7  8  1  0
  8  9  1  0
  9 10  2  0
 10 11  1  0
 11 12  2  0
 12 13  1  0
 13 14  2  0
  8 15  1  0
 15 16  2  0
 16 17  1  0
 17 18  2  0
 18 19  1  0
 19 20  2  0
  8 21  1  0
 21 22  1  0
 22 23  2  0
 23 24  1  0
 24 25  2  0
  7  2  1  0
 14  9  1  0
 20 15  1  0
 25 21  1  0
M  END
>  <zinc_id>  (2) 
ZINC000003807804

>  <smiles>  (2) 
Clc1ccccc1C(c1ccccc1)(c1ccccc1)n1ccnc1

$$$$

     RDKit          3D

 19 21  0  0  0  0  0  0  0  0999 V2000
   -3.5878    2.8406   -0.6365 N   0  0  0  0  0  0  0  0  0  0  0  0
   -3.1642    1.5221   -0.2851 C   0  0  0  0  0  0  0  0  0  0  0  0
   -3.1487    1.1314    1.0132 N   0  0  0  0  0  0  0  0  0  0  0  0
   -2.1741    0.2994    1.4518 C   0  0  0  0  0  0  0  0  0  0  0  0
   -2.2284   -0.3170    2.7447 N   0  0  0  0  0  0  0  0  0  0  0  0
   -1.4256   -0.3725    0.4907 C   0  0  0  0  0  0  0  0  0  0  0  0
   -0.1753   -0.7544    0.8530 N   0  0  0  0  0  0  0  0  0  0  0  0
    0.7361   -1.0758   -0.0987 C   0  0  0  0  0  0  0  0  0  0  0  0
    2.1541   -0.7319    0.0340 C   0  0  0  0  0  0  0  0  0  0  0  0
    2.8760   -0.1167   -0.9597 C   0  0  0  0  0  0  0  0  0  0  0  0
    3.7461    0.9251   -0.7332 C   0  0  0  0  0  0  0  0  0  0  0  0
    4.2505    1.0226    0.5582 C   0  0  0  0  0  0  0  0  0  0  0  0
    3.7344    0.2496    1.5688 C   0  0  0  0  0  0  0  0  0  0  0  0
    2.5987   -0.5146    1.3318 C   0  0  0  0  0  0  0  0  0  0  0  0
    0.2049   -1.3947   -1.3440 C   0  0  0  0  0  0  0  0  0  0  0  0
    1.0390   -2.1785   -2.1913 N   0  0  0  0  0  0  0  0  0  0  0  0
   -1.0289   -0.9763   -1.7182 N   0  0  0  0  0  0  0  0  0  0  0  0
   -1.8037   -0.2906   -0.8449 C   0  0  0  0  0  0  0  0  0  0  0  0
   -2.6029    0.7323   -1.2345 N   0  0  0  0  0  0  0  0  0  0  0  0
  1  2  1  0
  2  3  2  0
  3  4  1  0
  4  5  1  0
  4  6  2  0
  6  7  1  0
  7  8  2  0
  8  9  1  0
  9 10  2  0
 10 11  1  0
 11 12  2  0
 12 13  1  0
 13 14  2  0
  8 15  1  0
 15 16  1  0
 15 17  2  0
 17 18  1  0
 18 19  2  0
 19  2  1  0
 18  6  1  0
 14  9  1  0
M  END
>  <zinc_id>  (3) 
ZINC000000120286

>  <smiles>  (3) 
Nc1nc(N)c2nc(-c3ccccc3)c(N)nc2n1

$$$$

     RDKit          2D

 55 62  0  0  0  0  0  0  0  0999 V2000
   -2.2856    3.6137    0.0000 C   0  0  0  0  0  0  0  0  0  0  0  0
   -3.6873    4.1480    0.0000 C   0  0  0  0  0  0  0  0  0  0  0  0
   -4.8508    3.2012    0.0000 O   0  0  0  0  0  0  0  0  0  0  0  0
   -6.2524    3.7354    0.0000 C   0  0  0  0  0  0  0  0  0  0  0  0
   -7.4159    2.7887    0.0000 O   0  0  0  0  0  0  0  0  0  0  0  0
   -7.1777    1.3077    0.0000 C   0  0  0  0  0  0  0  0  0  0  0  0
   -8.3412    0.3609    0.0000 C   0  0  0  0  0  0  0  0  0  0  0  0
   -9.7428    0.8951    0.0000 C   0  0  0  0  0  0  0  0  0  0  0  0
   -8.1030   -1.1200    0.0000 O   0  0  0  0  0  0  0  0  0  0  0  0
   -6.7013   -1.6542    0.0000 C   0  0  0  0  0  0  0  0  0  0  0  0
   -6.4632   -3.1352    0.0000 O   0  0  0  0  0  0  0  0  0  0  0  0
   -5.0615   -3.6694    0.0000 C   0  0  0  0  0  0  0  0  0  0  0  0
   -4.8233   -5.1504    0.0000 C   0  0  0  0  0  0  0  0  0  0  0  0
   -5.9868   -6.0972    0.0000 C   0  0  0  0  0  0  0  0  0  0  0  0
   -3.4217   -5.6846    0.0000 O   0  0  0  0  0  0  0  0  0  0  0  0
   -2.2582   -4.7379    0.0000 C   0  0  0  0  0  0  0  0  0  0  0  0
   -0.8566   -5.2721    0.0000 O   0  0  0  0  0  0  0  0  0  0  0  0
    0.3069   -4.3253    0.0000 C   0  0  0  0  0  0  0  0  0  0  0  0
    1.7085   -4.8595    0.0000 C   0  0  0  0  0  0  0  0  0  0  0  0
    2.8720   -3.9128    0.0000 C   0  0  0  0  0  0  0  0  0  0  0  0
    2.6338   -2.4318    0.0000 C   0  0  0  0  0  0  0  0  0  0  0  0
    4.0355   -2.9660    0.0000 C   0  0  0  0  0  0  0  0  0  0  0  0
    1.2322   -1.8976    0.0000 C   0  0  0  0  0  0  0  0  0  0  0  0
    0.9940   -0.4166    0.0000 C   0  0  0  0  0  0  0  0  0  0  0  0
    2.1575    0.5301    0.0000 C   0  0  0  0  0  0  0  0  0  0  0  0
    3.5591   -0.0041    0.0000 C   0  0  0  0  0  0  0  0  0  0  0  0
    3.7973   -1.4851    0.0000 C   0  0  0  0  0  0  0  0  0  0  0  0
    5.1989   -2.0193    0.0000 C   0  0  0  0  0  0  0  0  0  0  0  0
    6.3624   -1.0725    0.0000 C   0  0  0  0  0  0  0  0  0  0  0  0
    7.7641   -1.6067    0.0000 O   0  0  0  0  0  0  0  0  0  0  0  0
    6.1242    0.4084    0.0000 C   0  0  0  0  0  0  0  0  0  0  0  0
    7.5740    0.0237    0.0000 C   0  0  0  0  0  0  0  0  0  0  0  0
    7.0654    1.5764    0.0000 C   0  0  0  0  0  0  0  0  0  0  0  0
    8.5636    1.5015    0.0000 C   0  0  0  0  0  0  0  0  0  0  0  0
    9.5048    2.6694    0.0000 C   0  0  0  0  0  0  0  0  0  0  0  0
   10.9064    2.1352    0.0000 C   0  0  0  0  0  0  0  0  0  0  0  0
   12.1625    2.9552    0.0000 O   0  0  0  0  0  0  0  0  0  0  0  0
   10.8315    0.6371    0.0000 O   0  0  0  0  0  0  0  0  0  0  0  0
    9.3835    0.2454    0.0000 C   0  0  0  0  0  0  0  0  0  0  0  0
    6.2455    2.8325    0.0000 C   0  0  0  0  0  0  0  0  0  0  0  0
    4.7975    2.4408    0.0000 C   0  0  0  0  0  0  0  0  0  0  0  0
    4.7226    0.9427    0.0000 C   0  0  0  0  0  0  0  0  0  0  0  0
    3.3845    1.6205    0.0000 O   0  0  0  0  0  0  0  0  0  0  0  0
    0.0687   -2.8444    0.0000 C   0  0  0  0  0  0  0  0  0  0  0  0
   -2.4964   -3.2569    0.0000 C   0  0  0  0  0  0  0  0  0  0  0  0
   -3.8980   -2.7227    0.0000 C   0  0  0  0  0  0  0  0  0  0  0  0
   -4.1362   -1.2417    0.0000 O   0  0  0  0  0  0  0  0  0  0  0  0
   -5.5379   -0.7075    0.0000 C   0  0  0  0  0  0  0  0  0  0  0  0
   -5.7761    0.7735    0.0000 C   0  0  0  0  0  0  0  0  0  0  0  0
   -4.6126    1.7202    0.0000 O   0  0  0  0  0  0  0  0  0  0  0  0
   -6.4906    5.2164    0.0000 C   0  0  0  0  0  0  0  0  0  0  0  0
   -5.3271    6.1631    0.0000 C   0  0  0  0  0  0  0  0  0  0  0  0
   -5.5653    7.6441    0.0000 O   0  0  0  0  0  0  0  0  0  0  0  0
   -3.9255    5.6289    0.0000 C   0  0  0  0  0  0  0  0  0  0  0  0
   -2.7620    6.5757    0.0000 O   0  0  0  0  0  0  0  0  0  0  0  0
  2  1  1  1
  2  3  1  0
  3  4  1  0
  4  5  1  1
  6  5  1  1
  6  7  1  0
  7  8  1  6
  7  9  1  0
  9 10  1  0
 10 11  1  6
 12 11  1  1
 12 13  1  0
 13 14  1  6
 13 15  1  0
 15 16  1  0
 16 17  1  6
 18 17  1  6
 18 19  1  0
 19 20  1  0
 20 21  1  0
 21 22  1  6
 21 23  1  0
 23 24  1  1
 24 25  1  0
 26 25  1  1
 26 27  1  0
 27 28  1  6
 28 29  1  0
 29 30  1  6
 29 31  1  0
 31 32  1  6
 31 33  1  0
 33 34  1  6
 34 35  2  0
 35 36  1  0
 36 37  2  0
 36 38  1  0
 38 39  1  0
 33 40  1  0
 40 41  1  0
 41 42  1  0
 42 43  1  6
 23 44  1  0
 16 45  1  0
 45 46  1  0
 46 47  1  1
 10 48  1  0
 48 49  1  0
 49 50  1  1
  4 51  1  0
 51 52  1  0
 52 53  1  6
 52 54  1  0
 54 55  1  6
 54  2  1  0
 49  6  1  0
 46 12  1  0
 44 18  1  0
 27 21  1  0
 42 31  1  0
 42 26  1  0
 39 34  1  0
M  END
>  <zinc_id>  (4) 
ZINC000242548690

>  <smiles>  (4) 
C[C@H]1O[C@@H](O[C@H]2[C@@H](O)C[C@H](O[C@H]3[C@@H](O)C[C@H](O[C@H]4CC[C@]5(C)[C@H]6C[C@@H](O)[C@]7(C)[C@@H](C8=CC(=O)OC8)CC[C@]7(O)[C@@H]6CC[C@@H]5C4)O[C@@H]3C)O[C@@H]2C)C[C@H](O)[C@@H]1O

$$$$

     RDKit          3D

 11 12  0  0  0  0  0  0  0  0999 V2000
   -1.7545    2.0624   -0.1915 O   0  0  0  0  0  0  0  0  0  0  0  0
   -1.3557    0.7341   -0.1532 C   0  0  0  0  0  0  0  0  0  0  0  0
   -2.2840   -0.2635    0.1137 C   0  0  0  0  0  0  0  0  0  0  0  0
   -1.7925   -1.4965    0.5285 C   0  0  0  0  0  0  0  0  0  0  0  0
   -0.5735   -1.8498   -0.0400 C   0  0  0  0  0  0  0  0  0  0  0  0
    0.3457   -0.8534   -0.3402 C   0  0  0  0  0  0  0  0  0  0  0  0
    1.7122   -1.1014   -0.3916 C   0  0  0  0  0  0  0  0  0  0  0  0
    2.6393   -0.1441    0.0035 C   0  0  0  0  0  0  0  0  0  0  0  0
    2.1385    1.0160    0.5843 C   0  0  0  0  0  0  0  0  0  0  0  0
    0.9302    1.4098    0.1103 N   0  0  0  0  0  0  0  0  0  0  0  0
   -0.0057    0.4864   -0.2239 C   0  0  0  0  0  0  0  0  0  0  0  0
  1  2  1  0
  2  3  2  0
  3  4  1  0
  4  5  2  0
  5  6  1  0
  6  7  2  0
  7  8  1  0
  8  9  2  0
  9 10  1  0
 10 11  2  0
 11  2  1  0
 11  6  1  0
M  END
>  <zinc_id>  (5) 
ZINC000000008492

>  <smiles>  (5) 
Oc1cccc2cccnc12

$$$$

     RDKit          3D

 27 30  0  0  0  0  0  0  0  0999 V2000
    1.4555   -2.3250   -0.5511 C   0  0  0  0  0  0  0  0  0  0  0  0
    0.9661   -1.6519   -0.6780 O   0  0  0  0  0  0  0  0  0  0  0  0
    0.5236   -0.4832   -0.0982 C   0  0  0  0  0  0  0  0  0  0  0  0
    1.4706    0.4446    0.3005 C   0  0  0  0  0  0  0  0  0  0  0  0
    2.7342    0.5596   -0.3015 N   0  0  0  0  0  0  0  0  0  0  0  0
    3.3036    1.8617   -0.6609 C   0  0  0  0  0  0  0  0  0  0  0  0
    4.7502    1.5429   -0.9936 C   0  0  0  0  0  0  0  0  0  0  0  0
    5.5355    1.0546    0.0353 N   0  0  0  0  0  0  0  0  0  0  0  0
    4.8349   -0.1473    0.7678 C   0  0  2  0  0  0  0  0  0  0  0  0
    5.9082   -1.2283    0.1504 C   0  0  0  0  0  0  0  0  0  0  0  0
    3.7390   -0.4704   -0.4159 C   0  0  0  0  0  0  0  0  0  0  0  0
    0.9836    1.5469    0.9891 C   0  0  0  0  0  0  0  0  0  0  0  0
    1.8316    2.4405    1.5322 F   0  0  0  0  0  0  0  0  0  0  0  0
   -0.3691    1.8651    1.0345 C   0  0  0  0  0  0  0  0  0  0  0  0
   -1.2821    0.9756    0.4812 C   0  0  0  0  0  0  0  0  0  0  0  0
   -2.6318    1.2813    0.6009 C   0  0  0  0  0  0  0  0  0  0  0  0
   -3.0428    2.4493    0.8260 O   0  0  0  0  0  0  0  0  0  0  0  0
   -3.5374    0.2379    0.4594 C   0  0  0  0  0  0  0  0  0  0  0  0
   -4.9592    0.5338    0.2555 C   0  0  0  0  0  0  0  0  0  0  0  0
   -5.3509    0.9882   -0.8614 O   0  0  0  0  0  0  0  0  0  0  0  0
   -5.8534   -0.3042    0.9277 O   0  0  0  0  0  0  0  0  0  0  0  0
   -3.0168   -0.9900    0.1071 C   0  0  0  0  0  0  0  0  0  0  0  0
   -1.7585   -1.1296   -0.3742 N   0  0  0  0  0  0  0  0  0  0  0  0
   -1.3526   -2.3359   -1.0172 C   0  0  0  0  0  0  0  0  0  0  0  0
   -2.0878   -3.6096   -0.8744 C   0  0  0  0  0  0  0  0  0  0  0  0
   -1.9583   -2.8764   -2.2361 C   0  0  0  0  0  0  0  0  0  0  0  0
   -0.8358   -0.2304    0.0179 C   0  0  0  0  0  0  0  0  0  0  0  0
  1  2  1  0
  2  3  1  0
  3  4  2  0
  4  5  1  0
  5  6  1  0
  6  7  1  0
  7  8  1  0
  8  9  1  0
  9 10  1  6
  9 11  1  0
  4 12  1  0
 12 13  1  0
 12 14  2  0
 14 15  1  0
 15 16  1  0
 16 17  2  0
 16 18  1  0
 18 19  1  0
 19 20  2  0
 19 21  1  0
 18 22  2  0
 22 23  1  0
 23 24  1  0
 24 25  1  0
 25 26  1  0
 23 27  1  0
 27  3  1  0
 11  5  1  0
 27 15  2  0
 26 24  1  0
M  END
>  <zinc_id>  (6) 
ZINC000003607120

>  <smiles>  (6) 
COc1c(N2CCN[C@H](C)C2)c(F)cc2c(=O)c(C(=O)O)cn(C3CC3)c12

$$$$

     RDKit          3D

 43 49  0  0  0  0  0  0  0  0999 V2000
    0.5105    0.5312    3.2664 C   0  0  0  0  0  0  0  0  0  0  0  0
    0.2605    0.7942    1.9628 C   0  0  0  0  0  0  0  0  0  0  0  0
   -0.6753   -0.1814    1.3336 C   0  0  0  0  0  0  0  0  0  0  0  0
   -1.8816    0.3004    0.8611 C   0  0  0  0  0  0  0  0  0  0  0  0
   -2.7295   -0.6479    0.3018 C   0  0  0  0  0  0  0  0  0  0  0  0
   -2.2710   -1.8512   -0.1215 N   0  0  0  0  0  0  0  0  0  0  0  0
   -0.9363   -2.0851   -0.1393 C   0  0  0  0  0  0  0  0  0  0  0  0
   -0.3176   -2.7752   -1.1693 C   0  0  0  0  0  0  0  0  0  0  0  0
    1.0699   -2.8225   -1.2172 C   0  0  0  0  0  0  0  0  0  0  0  0
    1.8562   -2.3270   -0.1845 C   0  0  0  0  0  0  0  0  0  0  0  0
    3.2080   -2.0721   -0.4345 O   0  0  0  0  0  0  0  0  0  0  0  0
    3.9097   -1.2182    0.4202 C   0  0  0  0  0  0  0  0  0  0  0  0
    3.5550   -1.2626    1.6368 O   0  0  0  0  0  0  0  0  0  0  0  0
    4.8956   -0.3016   -0.0552 N   0  0  0  0  0  0  0  0  0  0  0  0
    5.3698    0.7020    0.8813 C   0  0  0  0  0  0  0  0  0  0  0  0
    6.8696    0.7763    0.7172 C   0  0  0  0  0  0  0  0  0  0  0  0
    7.5054   -0.5995    0.7128 C   0  0  0  0  0  0  0  0  0  0  0  0
    8.9161   -0.3974    0.3920 N   0  0  0  0  0  0  0  0  0  0  0  0
    8.9654   -0.1346   -1.0443 C   0  0  0  0  0  0  0  0  0  0  0  0
    8.5817    1.3116   -1.3300 C   0  0  0  0  0  0  0  0  0  0  0  0
    9.7653    2.1818   -0.9285 C   0  0  0  0  0  0  0  0  0  0  0  0
   10.5011    1.4094    0.1585 C   0  0  0  0  0  0  0  0  0  0  0  0
    9.4392    0.7905    1.0383 C   0  0  0  0  0  0  0  0  0  0  0  0
    6.9428   -1.4636   -0.4076 C   0  0  0  0  0  0  0  0  0  0  0  0
    5.8011   -0.7365   -1.0962 C   0  0  0  0  0  0  0  0  0  0  0  0
    1.1616   -1.6928    0.8381 C   0  0  0  0  0  0  0  0  0  0  0  0
   -0.1578   -1.3135    0.7148 C   0  0  0  0  0  0  0  0  0  0  0  0
   -4.0115    0.0438    0.1187 C   0  0  0  0  0  0  0  0  0  0  0  0
   -5.3060   -0.4507    0.0248 C   0  0  0  0  0  0  0  0  0  0  0  0
   -6.3006    0.5094   -0.1185 C   0  0  0  0  0  0  0  0  0  0  0  0
   -5.9486    1.6936   -0.7545 C   0  0  0  0  0  0  0  0  0  0  0  0
   -4.6719    2.1936   -0.5324 C   0  0  0  0  0  0  0  0  0  0  0  0
   -4.3040    3.2334   -1.1389 O   0  0  0  0  0  0  0  0  0  0  0  0
   -3.7480    1.3696    0.0201 N   0  0  0  0  0  0  0  0  0  0  0  0
   -2.4494    1.6606    0.6082 C   0  0  0  0  0  0  0  0  0  0  0  0
   -6.9291    2.3915   -1.6432 C   0  0  0  0  0  0  0  0  0  0  0  0
   -7.7422    1.3911   -2.2516 O   0  0  0  0  0  0  0  0  0  0  0  0
   -8.1900    0.2701   -1.5490 C   0  0  0  0  0  0  0  0  0  0  0  0
   -8.2234   -0.8302   -2.1786 O   0  0  0  0  0  0  0  0  0  0  0  0
   -7.7456    0.1753   -0.1255 C   0  0  1  0  0  0  0  0  0  0  0  0
   -7.9642   -1.0760    0.4178 O   0  0  0  0  0  0  0  0  0  0  0  0
   -8.4662    1.2769    0.6411 C   0  0  0  0  0  0  0  0  0  0  0  0
   -8.1148    1.2336    2.1066 C   0  0  0  0  0  0  0  0  0  0  0  0
  1  2  1  0
  2  3  1  0
  3  4  2  0
  4  5  1  0
  5  6  2  0
  6  7  1  0
  7  8  2  0
  8  9  1  0
  9 10  2  0
 10 11  1  0
 11 12  1  0
 12 13  2  0
 12 14  1  0
 14 15  1  0
 15 16  1  0
 16 17  1  0
 17 18  1  0
 18 19  1  0
 19 20  1  0
 20 21  1  0
 21 22  1  0
 22 23  1  0
 17 24  1  0
 24 25  1  0
 10 26  1  0
 26 27  2  0
  5 28  1  0
 28 29  2  0
 29 30  1  0
 30 31  2  0
 31 32  1  0
 32 33  2  0
 32 34  1  0
 34 35  1  0
 31 36  1  0
 36 37  1  0
 37 38  1  0
 38 39  2  0
 38 40  1  0
 40 41  1  1
 40 42  1  0
 42 43  1  0
 27  3  1  0
 34 28  1  0
 35  4  1  0
 27  7  1  0
 40 30  1  0
 25 14  1  0
 23 18  1  0
M  END
>  <zinc_id>  (7) 
ZINC000001612996

>  <smiles>  (7) 
CCc1c2c(nc3ccc(OC(=O)N4CCC(N5CCCCC5)CC4)cc13)-c1cc3c(c(=O)n1C2)COC(=O)[C@]3(O)CC

$$$$

     RDKit          3D

 39 43  0  0  0  0  0  0  0  0999 V2000
   -4.9284   -3.7522    1.6137 C   0  0  0  0  0  0  0  0  0  0  0  0
   -4.3613   -3.5649    0.9507 O   0  0  0  0  0  0  0  0  0  0  0  0
   -4.5196   -2.4751    0.0831 C   0  0  0  0  0  0  0  0  0  0  0  0
   -5.4852   -2.4238   -0.8914 C   0  0  0  0  0  0  0  0  0  0  0  0
   -5.9459   -1.1695   -1.2816 C   0  0  0  0  0  0  0  0  0  0  0  0
   -5.4002   -0.0381   -0.6839 C   0  0  0  0  0  0  0  0  0  0  0  0
   -4.2745   -0.1101    0.1322 C   0  0  0  0  0  0  0  0  0  0  0  0
   -3.7705   -1.3627    0.4443 C   0  0  0  0  0  0  0  0  0  0  0  0
   -2.3986   -1.5586    0.9339 C   0  0  0  0  0  0  0  0  0  0  0  0
   -2.0450   -2.6395    1.4373 O   0  0  0  0  0  0  0  0  0  0  0  0
   -1.4058   -0.5573    0.6194 C   0  0  0  0  0  0  0  0  0  0  0  0
   -0.0475   -0.6962    0.8855 C   0  0  0  0  0  0  0  0  0  0  0  0
    0.3235   -1.7404    1.7066 O   0  0  0  0  0  0  0  0  0  0  0  0
    0.8684    0.2444    0.3982 C   0  0  0  0  0  0  0  0  0  0  0  0
    0.3679    1.1261   -0.4347 C   0  0  0  0  0  0  0  0  0  0  0  0
   -0.9713    1.4912   -0.5421 C   0  0  0  0  0  0  0  0  0  0  0  0
   -1.4525    2.1285   -1.6961 O   0  0  0  0  0  0  0  0  0  0  0  0
   -1.8509    0.6836    0.1744 C   0  0  0  0  0  0  0  0  0  0  0  0
   -3.2891    0.9813    0.1422 C   0  0  0  0  0  0  0  0  0  0  0  0
   -3.6046    2.1119   -0.3260 O   0  0  0  0  0  0  0  0  0  0  0  0
    1.3051    2.1349   -1.0119 C   0  0  0  0  0  0  0  0  0  0  0  0
    1.5390    2.8389    0.3227 C   0  0  1  0  0  0  0  0  0  0  0  0
    2.3644    3.8941   -0.1123 O   0  0  0  0  0  0  0  0  0  0  0  0
    0.2722    3.4917    0.8265 C   0  0  0  0  0  0  0  0  0  0  0  0
   -0.1410    3.2884    1.9710 O   0  0  0  0  0  0  0  0  0  0  0  0
   -0.1928    4.6296    0.1280 C   0  0  0  0  0  0  0  0  0  0  0  0
   -0.3970    5.8578    0.5025 O   0  0  0  0  0  0  0  0  0  0  0  0
    2.1285    2.1847    1.3771 C   0  0  0  0  0  0  0  0  0  0  0  0
    2.0133    0.5545    1.5008 C   0  0  2  0  0  0  0  0  0  0  0  0
    3.1589    0.3537    0.5034 O   0  0  0  0  0  0  0  0  0  0  0  0
    3.3178   -1.1441    0.8101 C   0  0  1  0  0  0  0  0  0  0  0  0
    3.0012   -1.5129   -0.7709 C   0  0  0  0  0  0  0  0  0  0  0  0
    3.8014   -2.8999   -1.0523 C   0  0  2  0  0  0  0  0  0  0  0  0
    4.1542   -3.3018    0.4200 N   0  0  0  0  0  0  0  0  0  0  0  0
    5.2880   -2.1596   -1.4891 C   0  0  2  0  0  0  0  0  0  0  0  0
    6.1385   -2.7371   -0.4022 O   0  0  0  0  0  0  0  0  0  0  0  0
    4.9939   -0.6412   -0.7434 C   0  0  2  0  0  0  0  0  0  0  0  0
    6.5992   -0.3795   -0.5095 C   0  0  0  0  0  0  0  0  0  0  0  0
    4.8464   -1.1307    0.6670 O   0  0  0  0  0  0  0  0  0  0  0  0
  1  2  1  0
  2  3  1  0
  3  4  2  0
  4  5  1  0
  5  6  2  0
  6  7  1  0
  7  8  2  0
  8  9  1  0
  9 10  2  0
  9 11  1  0
 11 12  2  0
 12 13  1  0
 12 14  1  0
 14 15  2  0
 15 16  1  0
 16 17  1  0
 16 18  2  0
 18 19  1  0
 19 20  2  0
 15 21  1  0
 21 22  1  0
 22 23  1  6
 22 24  1  0
 24 25  2  0
 24 26  1  0
 26 27  1  0
 22 28  1  0
 28 29  1  0
 29 30  1  6
 31 30  1  6
 31 32  1  0
 32 33  1  0
 33 34  1  1
 33 35  1  0
 35 36  1  1
 35 37  1  0
 37 38  1  1
 37 39  1  0
  8  3  1  0
 18 11  1  0
 39 31  1  0
 19  7  1  0
 29 14  1  0
M  END
>  <zinc_id>  (8) 
ZINC000003918087

>  <smiles>  (8) 
COc1cccc2c1C(=O)c1c(O)c3c(c(O)c1C2=O)C[C@@](O)(C(=O)CO)C[C@@H]3O[C@H]1C[C@H](N)[C@H](O)[C@H](C)O1

$$$$

     RDKit          3D

 19 19  0  0  0  0  0  0  0  0999 V2000
   -3.3337   -1.3601   -1.3252 N   0  0  0  0  0  0  0  0  0  0  0  0
   -3.4556   -0.8767    0.1915 C   0  0  1  0  0  0  0  0  0  0  0  0
   -2.7994    0.6114   -0.1733 C   0  0  0  0  0  0  0  0  0  0  0  0
   -1.3811    0.2894    0.1082 C   0  0  0  0  0  0  0  0  0  0  0  0
   -0.7206   -0.7707   -0.4953 C   0  0  0  0  0  0  0  0  0  0  0  0
    0.6472   -0.8956   -0.2900 C   0  0  0  0  0  0  0  0  0  0  0  0
    1.2510    0.0487    0.4916 C   0  0  0  0  0  0  0  0  0  0  0  0
    2.6709    0.1776    0.4238 N   0  0  0  0  0  0  0  0  0  0  0  0
    3.4055   -0.8129    1.2054 C   0  0  0  0  0  0  0  0  0  0  0  0
    4.4053   -0.1083    2.0844 C   0  0  0  0  0  0  0  0  0  0  0  0
    5.9449   -0.1039    1.1925 Cl  0  0  0  0  0  0  0  0  0  0  0  0
    3.2021    0.7720   -0.7839 C   0  0  0  0  0  0  0  0  0  0  0  0
    2.4559    0.3381   -2.0246 C   0  0  0  0  0  0  0  0  0  0  0  0
    3.5909   -0.1976   -3.2870 Cl  0  0  0  0  0  0  0  0  0  0  0  0
    0.5089    0.7088    1.4528 C   0  0  0  0  0  0  0  0  0  0  0  0
   -0.8513    0.8359    1.2713 C   0  0  0  0  0  0  0  0  0  0  0  0
   -4.9820   -0.3333   -0.0107 C   0  0  0  0  0  0  0  0  0  0  0  0
   -5.3331    0.1571    1.1063 O   0  0  0  0  0  0  0  0  0  0  0  0
   -5.2259    0.3925   -1.1379 O   0  0  0  0  0  0  0  0  0  0  0  0
  2  1  1  6
  2  3  1  0
  3  4  1  0
  4  5  2  0
  5  6  1  0
  6  7  2  0
  7  8  1  0
  8  9  1  0
  9 10  1  0
 10 11  1  0
  8 12  1  0
 12 13  1  0
 13 14  1  0
  7 15  1  0
 15 16  2  0
  2 17  1  0
 17 18  2  0
 17 19  1  0
 16  4  1  0
M  END
>  <zinc_id>  (9) 
ZINC000000001673

>  <smiles>  (9) 
N[C@@H](Cc1ccc(N(CCCl)CCCl)cc1)C(=O)O

$$$$

     RDKit          3D

  9  9  0  0  0  0  0  0  0  0999 V2000
   -1.9237    1.5457   -0.0698 N   0  0  0  0  0  0  0  0  0  0  0  0
   -0.7959    0.6620   -0.1083 C   0  0  0  0  0  0  0  0  0  0  0  0
    0.4625    1.1617   -0.0573 N   0  0  0  0  0  0  0  0  0  0  0  0
    1.5016    0.3235   -0.0252 C   0  0  0  0  0  0  0  0  0  0  0  0
    2.5439    0.6708    0.5980 O   0  0  0  0  0  0  0  0  0  0  0  0
    1.2819   -0.9443   -0.4349 N   0  0  0  0  0  0  0  0  0  0  0  0
    0.0519   -1.5117   -0.4328 C   0  0  0  0  0  0  0  0  0  0  0  0
   -1.0069   -0.7104   -0.0460 C   0  0  0  0  0  0  0  0  0  0  0  0
   -2.1153   -1.1973    0.5764 F   0  0  0  0  0  0  0  0  0  0  0  0
  1  2  1  0
  2  3  2  0
  3  4  1  0
  4  5  2  0
  4  6  1  0
  6  7  1  0
  7  8  2  0
  8  9  1  0
  8  2  1  0
M  END
>  <zinc_id>  (10) 
ZINC000000896546

>  <smiles>  (10) 
Nc1nc(=O)[nH]cc1F

$$$$

     RDKit          3D

 23 25  0  0  0  0  0  0  0  0999 V2000
   -0.9240    1.7028    2.3344 C   0  0  0  0  0  0  0  0  0  0  0  0
   -1.0839    1.6667    0.8806 N   0  0  0  0  0  0  0  0  0  0  0  0
   -0.2434    0.8074    0.0943 C   0  0  0  0  0  0  0  0  0  0  0  0
    1.1495    0.7209    0.5318 C   0  0  0  0  0  0  0  0  0  0  0  0
    1.3682    0.4254    1.7432 O   0  0  0  0  0  0  0  0  0  0  0  0
    2.2623    0.8895   -0.3134 N   0  0  0  0  0  0  0  0  0  0  0  0
    3.4174    0.0625   -0.1231 C   0  0  0  0  0  0  0  0  0  0  0  0
    4.4831    0.4494    0.6678 C   0  0  0  0  0  0  0  0  0  0  0  0
    5.4711   -0.4519    0.9919 C   0  0  0  0  0  0  0  0  0  0  0  0
    5.3504   -1.7710    0.5755 C   0  0  0  0  0  0  0  0  0  0  0  0
    4.4150   -2.0698   -0.4002 C   0  0  0  0  0  0  0  0  0  0  0  0
    3.4216   -1.2006   -0.5797 N   0  0  0  0  0  0  0  0  0  0  0  0
   -0.7620   -0.0253   -0.8108 C   0  0  0  0  0  0  0  0  0  0  0  0
    0.1212   -0.6029   -1.7199 O   0  0  0  0  0  0  0  0  0  0  0  0
   -2.1066   -0.5982   -0.6617 C   0  0  0  0  0  0  0  0  0  0  0  0
   -2.4163   -1.8788   -1.1038 C   0  0  0  0  0  0  0  0  0  0  0  0
   -3.5039   -2.5127   -0.5169 C   0  0  0  0  0  0  0  0  0  0  0  0
   -4.1426   -1.9124    0.5602 C   0  0  0  0  0  0  0  0  0  0  0  0
   -4.0313   -0.5389    0.7485 C   0  0  0  0  0  0  0  0  0  0  0  0
   -3.1535    0.1260   -0.1002 C   0  0  0  0  0  0  0  0  0  0  0  0
   -2.7321    1.7831    0.3324 S   0  0  0  0  0  0  0  0  0  0  0  0
   -3.6374    2.3242    1.3876 O   0  0  0  0  0  0  0  0  0  0  0  0
   -2.7229    2.6046   -0.9124 O   0  0  0  0  0  0  0  0  0  0  0  0
  1  2  1  0
  2  3  1  0
  3  4  1  0
  4  5  2  0
  4  6  1  0
  6  7  1  0
  7  8  2  0
  8  9  1  0
  9 10  2  0
 10 11  1  0
 11 12  2  0
  3 13  2  0
 13 14  1  0
 13 15  1  0
 15 16  2  0
 16 17  1  0
 17 18  2  0
 18 19  1  0
 19 20  2  0
 20 21  1  0
 21 22  2  0
 21 23  2  0
 21  2  1  0
 12  7  1  0
 20 15  1  0
M  END
>  <zinc_id>  (11) 
ZINC000051133897

>  <smiles>  (11) 
CN1C(C(=O)Nc2ccccn2)=C(O)c2ccccc2S1(=O)=O

$$$$

     RDKit          3D

 10 11  0  0  0  0  0  0  0  0999 V2000
   -1.7757    2.1597    0.3121 S   0  0  0  0  0  0  0  0  0  0  0  0
   -1.1697    0.6699    0.0134 C   0  0  0  0  0  0  0  0  0  0  0  0
   -1.9423   -0.3795    0.3890 N   0  0  0  0  0  0  0  0  0  0  0  0
   -1.4350   -1.6247    0.2309 C   0  0  0  0  0  0  0  0  0  0  0  0
   -0.1497   -1.7640   -0.1743 N   0  0  0  0  0  0  0  0  0  0  0  0
    0.7014   -0.7972    0.2495 C   0  0  0  0  0  0  0  0  0  0  0  0
    2.0050   -0.6716   -0.1018 N   0  0  0  0  0  0  0  0  0  0  0  0
    2.3428    0.6080    0.1811 C   0  0  0  0  0  0  0  0  0  0  0  0
    1.2293    1.3029    0.5173 N   0  0  0  0  0  0  0  0  0  0  0  0
    0.1939    0.4965    0.2112 C   0  0  0  0  0  0  0  0  0  0  0  0
  1  2  2  0
  2  3  1  0
  3  4  1  0
  4  5  2  0
  5  6  1  0
  6  7  1  0
  7  8  2  0
  8  9  1  0
  9 10  1  0
 10  2  1  0
 10  6  2  0
M  END
>  <zinc_id>  (12) 
ZINC000004658290

>  <smiles>  (12) 
S=c1[nH]cnc2nc[nH]c12

$$$$

     RDKit          3D

 33 35  0  0  0  0  0  0  0  0999 V2000
   -2.2669    0.3188   -1.2286 C   0  0  0  0  0  0  0  0  0  0  0  0
   -1.6696   -0.0353   -0.6096 N   0  0  0  0  0  0  0  0  0  0  0  0
   -1.9694    0.0572    0.8186 C   0  0  0  0  0  0  0  0  0  0  0  0
   -3.4536    0.1770    0.9126 C   0  0  0  0  0  0  0  0  0  0  0  0
   -4.0697    0.7937    1.9692 C   0  0  0  0  0  0  0  0  0  0  0  0
   -5.4123    0.7923    2.1002 N   0  0  0  0  0  0  0  0  0  0  0  0
   -6.1628    0.3660    1.0751 C   0  0  0  0  0  0  0  0  0  0  0  0
   -7.4970    0.2474    1.1160 N   0  0  0  0  0  0  0  0  0  0  0  0
   -8.2151   -0.2029    0.0707 C   0  0  0  0  0  0  0  0  0  0  0  0
   -9.4813   -0.8280    0.2228 N   0  0  0  0  0  0  0  0  0  0  0  0
   -7.6261   -0.2431   -1.1435 N   0  0  0  0  0  0  0  0  0  0  0  0
   -6.3054   -0.0550   -1.2531 C   0  0  0  0  0  0  0  0  0  0  0  0
   -5.6336   -0.1344   -2.5144 N   0  0  0  0  0  0  0  0  0  0  0  0
   -5.5374    0.0873   -0.1291 C   0  0  0  0  0  0  0  0  0  0  0  0
   -4.2453   -0.2618   -0.0930 N   0  0  0  0  0  0  0  0  0  0  0  0
   -0.3026   -0.1826   -1.0085 C   0  0  0  0  0  0  0  0  0  0  0  0
    0.3940   -1.3526   -0.9652 C   0  0  0  0  0  0  0  0  0  0  0  0
    1.7783   -1.2572   -1.0419 C   0  0  0  0  0  0  0  0  0  0  0  0
    2.3920   -0.0348   -1.2855 C   0  0  0  0  0  0  0  0  0  0  0  0
    3.7782    0.2271   -0.8780 C   0  0  0  0  0  0  0  0  0  0  0  0
    4.4819    1.0207   -1.5340 O   0  0  0  0  0  0  0  0  0  0  0  0
    4.1188    0.0200    0.4906 N   0  0  0  0  0  0  0  0  0  0  0  0
    5.6179   -0.4614    0.6112 C   0  0  1  0  0  0  0  0  0  0  0  0
    6.1599    1.0696    0.8937 C   0  0  0  0  0  0  0  0  0  0  0  0
    7.2381    1.2618   -0.1657 C   0  0  0  0  0  0  0  0  0  0  0  0
    8.2213    0.1636   -0.1746 C   0  0  0  0  0  0  0  0  0  0  0  0
    9.4360    0.4940   -0.3285 O   0  0  0  0  0  0  0  0  0  0  0  0
    7.9063   -1.1709   -0.3494 O   0  0  0  0  0  0  0  0  0  0  0  0
    5.4841   -0.7919    2.1853 C   0  0  0  0  0  0  0  0  0  0  0  0
    4.9008    0.0208    2.9032 O   0  0  0  0  0  0  0  0  0  0  0  0
    6.0459   -1.9870    2.5852 O   0  0  0  0  0  0  0  0  0  0  0  0
    1.6310    1.0531   -1.6590 C   0  0  0  0  0  0  0  0  0  0  0  0
    0.2634    0.9311   -1.5930 C   0  0  0  0  0  0  0  0  0  0  0  0
  1  2  1  0
  2  3  1  0
  3  4  1  0
  4  5  2  0
  5  6  1  0
  6  7  2  0
  7  8  1  0
  8  9  2  0
  9 10  1  0
  9 11  1  0
 11 12  2  0
 12 13  1  0
 12 14  1  0
 14 15  2  0
  2 16  1  0
 16 17  2  0
 17 18  1  0
 18 19  2  0
 19 20  1  0
 20 21  2  0
 20 22  1  0
 23 22  1  6
 23 24  1  0
 24 25  1  0
 25 26  1  0
 26 27  2  0
 26 28  1  0
 23 29  1  0
 29 30  2  0
 29 31  1  0
 19 32  1  0
 32 33  2  0
 15  4  1  0
 33 16  1  0
 14  7  1  0
M  END
>  <zinc_id>  (13) 
ZINC000001529323

>  <smiles>  (13) 
CN(Cc1cnc2nc(N)nc(N)c2n1)c1ccc(C(=O)N[C@@H](CCC(=O)O)C(=O)O)cc1

$$$$

     RDKit          3D

 28 31  0  0  0  0  0  0  0  0999 V2000
   -5.4354    2.9210   -1.0842 C   0  0  0  0  0  0  0  0  0  0  0  0
   -5.6910    1.5338   -1.1736 O   0  0  0  0  0  0  0  0  0  0  0  0
   -4.8245    0.6646   -0.5251 C   0  0  0  0  0  0  0  0  0  0  0  0
   -3.5141    0.9980   -0.2835 C   0  0  0  0  0  0  0  0  0  0  0  0
   -2.6291    0.0168    0.1327 C   0  0  0  0  0  0  0  0  0  0  0  0
   -1.4005    0.3104    0.6203 N   0  0  0  0  0  0  0  0  0  0  0  0
   -0.3909   -0.5659    0.4306 C   0  0  0  0  0  0  0  0  0  0  0  0
    0.9672   -0.1436    0.2567 N   0  0  0  0  0  0  0  0  0  0  0  0
    1.2797    1.2553    0.4683 C   0  0  0  0  0  0  0  0  0  0  0  0
    2.2290    1.7962   -0.5803 C   0  0  0  0  0  0  0  0  0  0  0  0
    3.3687    0.9277   -0.7398 N   0  0  0  0  0  0  0  0  0  0  0  0
    4.7080    1.4234   -0.8285 C   0  0  0  0  0  0  0  0  0  0  0  0
    4.8908    2.4097   -1.5794 O   0  0  0  0  0  0  0  0  0  0  0  0
    5.8601    0.6126   -0.4555 C   0  0  0  0  0  0  0  0  0  0  0  0
    5.8985   -0.7710   -0.3665 C   0  0  0  0  0  0  0  0  0  0  0  0
    6.9142   -1.0855    0.5266 C   0  0  0  0  0  0  0  0  0  0  0  0
    7.5307    0.1244    0.8041 C   0  0  0  0  0  0  0  0  0  0  0  0
    6.9300    1.0778    0.1345 O   0  0  0  0  0  0  0  0  0  0  0  0
    3.1723   -0.4984   -0.7796 C   0  0  0  0  0  0  0  0  0  0  0  0
    1.7136   -0.8577   -0.7760 C   0  0  0  0  0  0  0  0  0  0  0  0
   -0.7397   -1.8425    0.1987 N   0  0  0  0  0  0  0  0  0  0  0  0
   -2.0281   -2.2514    0.1204 C   0  0  0  0  0  0  0  0  0  0  0  0
   -2.3766   -3.6201   -0.1102 N   0  0  0  0  0  0  0  0  0  0  0  0
   -3.0131   -1.3096   -0.0230 C   0  0  0  0  0  0  0  0  0  0  0  0
   -4.3673   -1.6186   -0.0184 C   0  0  0  0  0  0  0  0  0  0  0  0
   -5.2859   -0.5831   -0.1296 C   0  0  0  0  0  0  0  0  0  0  0  0
   -6.6399   -0.7592    0.1684 O   0  0  0  0  0  0  0  0  0  0  0  0
   -7.1269   -0.1650    1.3667 C   0  0  0  0  0  0  0  0  0  0  0  0
  1  2  1  0
  2  3  1  0
  3  4  2  0
  4  5  1  0
  5  6  2  0
  6  7  1  0
  7  8  1  0
  8  9  1  0
  9 10  1  0
 10 11  1  0
 11 12  1  0
 12 13  2  0
 12 14  1  0
 14 15  2  0
 15 16  1  0
 16 17  2  0
 17 18  1  0
 11 19  1  0
 19 20  1  0
  7 21  2  0
 21 22  1  0
 22 23  1  0
 22 24  2  0
 24 25  1  0
 25 26  2  0
 26 27  1  0
 27 28  1  0
 26  3  1  0
 24  5  1  0
 20  8  1  0
 18 14  1  0
M  END
>  <zinc_id>  (14) 
ZINC000095616601

>  <smiles>  (14) 
COc1cc2nc(N3CCN(C(=O)c4ccco4)CC3)nc(N)c2cc1OC

$$$$

     RDKit          3D

 25 27  0  0  0  0  0  0  0  0999 V2000
   -0.8086    4.2515   -0.1285 C   0  0  0  0  0  0  0  0  0  0  0  0
   -0.0929    3.0727   -0.1371 N   0  0  0  0  0  0  0  0  0  0  0  0
    1.0207    2.8875    0.6110 C   0  0  0  0  0  0  0  0  0  0  0  0
    1.2145    3.6682    1.5841 O   0  0  0  0  0  0  0  0  0  0  0  0
    1.8678    1.8328    0.3067 C   0  0  0  0  0  0  0  0  0  0  0  0
    1.3392    0.7401   -0.3714 C   0  0  0  0  0  0  0  0  0  0  0  0
    2.0420   -0.4712   -0.3714 N   0  0  0  0  0  0  0  0  0  0  0  0
    1.8196   -1.5915   -1.2454 C   0  0  0  0  0  0  0  0  0  0  0  0
    3.0810   -2.4021   -1.2536 C   0  0  0  0  0  0  0  0  0  0  0  0
    3.4561   -2.9882    0.0649 C   0  0  0  0  0  0  0  0  0  0  0  0
    2.6048   -2.1187    1.2043 C   0  0  1  0  0  0  0  0  0  0  0  0
    3.8318   -2.1794    2.2272 N   0  0  0  0  0  0  0  0  0  0  0  0
    3.1453   -0.6712    0.5722 C   0  0  0  0  0  0  0  0  0  0  0  0
    0.0358    0.8410   -0.7303 N   0  0  0  0  0  0  0  0  0  0  0  0
   -0.7140   -0.3134   -1.1243 C   0  0  0  0  0  0  0  0  0  0  0  0
   -2.0712   -0.3698   -0.4941 C   0  0  0  0  0  0  0  0  0  0  0  0
   -3.1920    0.1500   -1.1322 C   0  0  0  0  0  0  0  0  0  0  0  0
   -4.4769   -0.1276   -0.7556 C   0  0  0  0  0  0  0  0  0  0  0  0
   -4.6978   -1.2819   -0.0409 C   0  0  0  0  0  0  0  0  0  0  0  0
   -3.6134   -1.9488    0.4800 C   0  0  0  0  0  0  0  0  0  0  0  0
   -2.3224   -1.4519    0.3436 C   0  0  0  0  0  0  0  0  0  0  0  0
   -1.3051   -1.8378    1.2722 C   0  0  0  0  0  0  0  0  0  0  0  0
   -0.4906   -2.0416    2.0620 N   0  0  0  0  0  0  0  0  0  0  0  0
   -0.5096    2.0635   -0.9400 C   0  0  0  0  0  0  0  0  0  0  0  0
   -1.1641    2.2878   -2.0032 O   0  0  0  0  0  0  0  0  0  0  0  0
  1  2  1  0
  2  3  1  0
  3  4  2  0
  3  5  1  0
  5  6  2  0
  6  7  1  0
  7  8  1  0
  8  9  1  0
  9 10  1  0
 10 11  1  0
 11 12  1  1
 11 13  1  0
  6 14  1  0
 14 15  1  0
 15 16  1  0
 16 17  2  0
 17 18  1  0
 18 19  2  0
 19 20  1  0
 20 21  2  0
 21 22  1  0
 22 23  3  0
 14 24  1  0
 24 25  2  0
 24  2  1  0
 13  7  1  0
 21 16  1  0
M  END
>  <zinc_id>  (15) 
ZINC000014961096

>  <smiles>  (15) 
Cn1c(=O)cc(N2CCC[C@@H](N)C2)n(Cc2ccccc2C#N)c1=O

$$$$

     RDKit          3D

 21 21  0  0  0  0  0  0  0  0999 V2000
    7.0338    0.1408   -0.7201 C   0  0  0  0  0  0  0  0  0  0  0  0
    6.6775    0.0775   -0.9312 C   0  0  0  0  0  0  0  0  0  0  0  0
    5.3371    0.4418   -1.5480 C   0  0  0  0  0  0  0  0  0  0  0  0
    4.4458    1.1345   -0.5517 C   0  0  0  0  0  0  0  0  0  0  0  0
    3.2463    0.0036   -0.3918 C   0  0  1  0  0  0  0  0  0  0  0  0
    3.9562   -0.6681    0.9435 C   0  0  0  0  0  0  0  0  0  0  0  0
    4.3586    0.4614    1.8258 C   0  0  0  0  0  0  0  0  0  0  0  0
    2.3205    1.0261    0.5249 C   0  0  0  0  0  0  0  0  0  0  0  0
    1.0405    0.4673    0.2732 O   0  0  0  0  0  0  0  0  0  0  0  0
    0.5955    0.2107   -1.0233 C   0  0  0  0  0  0  0  0  0  0  0  0
    1.2250    0.7739   -1.9632 O   0  0  0  0  0  0  0  0  0  0  0  0
   -0.7837   -0.1856   -1.2211 C   0  0  0  0  0  0  0  0  0  0  0  0
   -1.7938    0.6735   -1.2765 C   0  0  0  0  0  0  0  0  0  0  0  0
   -3.0728    0.4182   -0.6021 C   0  0  0  0  0  0  0  0  0  0  0  0
   -3.4423    1.2687    0.4088 C   0  0  0  0  0  0  0  0  0  0  0  0
   -4.4613    1.0081    1.2935 C   0  0  0  0  0  0  0  0  0  0  0  0
   -5.0366   -0.2500    1.2213 C   0  0  0  0  0  0  0  0  0  0  0  0
   -5.8772   -0.6795    2.2194 O   0  0  0  0  0  0  0  0  0  0  0  0
   -7.2511   -0.9231    2.0871 C   0  0  0  0  0  0  0  0  0  0  0  0
   -4.8098   -1.0498    0.1152 C   0  0  0  0  0  0  0  0  0  0  0  0
   -3.7082   -0.8019   -0.6839 C   0  0  0  0  0  0  0  0  0  0  0  0
  1  2  1  0
  2  3  1  0
  3  4  1  0
  5  4  1  6
  5  6  1  0
  6  7  1  0
  5  8  1  0
  8  9  1  0
  9 10  1  0
 10 11  2  0
 10 12  1  0
 12 13  2  0
 13 14  1  0
 14 15  2  0
 15 16  1  0
 16 17  2  0
 17 18  1  0
 18 19  1  0
 17 20  1  0
 20 21  2  0
 21 14  1  0
M  END
>  <zinc_id>  (16) 
ZINC000001633887

>  <smiles>  (16) 
CCCC[C@@H](CC)COC(=O)/C=C/c1ccc(OC)cc1

$$$$

     RDKit          3D

 33 35  0  0  0  0  0  0  0  0999 V2000
   -3.9131    1.9848    1.0671 C   0  0  0  0  0  0  0  0  0  0  0  0
   -4.1162    0.7303    0.3507 N   0  0  0  0  0  0  0  0  0  0  0  0
   -5.4192    0.1807    0.3510 C   0  0  0  0  0  0  0  0  0  0  0  0
   -5.6886   -0.8142   -0.5816 C   0  0  0  0  0  0  0  0  0  0  0  0
   -6.9521   -1.0106   -1.0300 N   0  0  0  0  0  0  0  0  0  0  0  0
   -7.9151   -0.0918   -0.7671 C   0  0  0  0  0  0  0  0  0  0  0  0
   -8.8400    0.3354   -1.7769 N   0  0  0  0  0  0  0  0  0  0  0  0
   -7.7835    0.5839    0.4030 N   0  0  0  0  0  0  0  0  0  0  0  0
   -6.5331    0.8122    0.8817 C   0  0  0  0  0  0  0  0  0  0  0  0
   -6.3030    1.7161    1.7413 O   0  0  0  0  0  0  0  0  0  0  0  0
   -4.5571   -1.4762   -1.1197 N   0  0  0  0  0  0  0  0  0  0  0  0
   -3.2016   -0.9613   -0.9423 C   0  0  0  0  0  0  0  0  0  0  0  0
   -3.3773    0.6692   -1.0386 C   0  0  2  0  0  0  0  0  0  0  0  0
   -1.9104    0.9400   -0.3529 C   0  0  0  0  0  0  0  0  0  0  0  0
   -0.9873    0.1655   -1.1789 N   0  0  0  0  0  0  0  0  0  0  0  0
   -0.0543   -0.6189   -0.4718 C   0  0  0  0  0  0  0  0  0  0  0  0
    0.6075   -0.1110    0.6417 C   0  0  0  0  0  0  0  0  0  0  0  0
    1.7008   -0.8132    1.1437 C   0  0  0  0  0  0  0  0  0  0  0  0
    2.3368   -1.7652    0.3550 C   0  0  0  0  0  0  0  0  0  0  0  0
    3.7550   -1.7036   -0.0225 C   0  0  0  0  0  0  0  0  0  0  0  0
    4.0973   -2.0399   -1.1996 O   0  0  0  0  0  0  0  0  0  0  0  0
    4.7512   -0.9968    0.6705 N   0  0  0  0  0  0  0  0  0  0  0  0
    5.3760    0.2440   -0.0843 C   0  0  1  0  0  0  0  0  0  0  0  0
    6.7008    0.2700    0.8943 C   0  0  0  0  0  0  0  0  0  0  0  0
    6.4533    1.5581    1.6705 C   0  0  0  0  0  0  0  0  0  0  0  0
    6.8423    2.6753    0.7648 C   0  0  0  0  0  0  0  0  0  0  0  0
    5.9202    3.2241    0.0993 O   0  0  0  0  0  0  0  0  0  0  0  0
    8.1274    2.7640    0.2747 O   0  0  0  0  0  0  0  0  0  0  0  0
    6.0631   -0.6831   -1.2118 C   0  0  0  0  0  0  0  0  0  0  0  0
    6.8952   -1.5173   -0.8618 O   0  0  0  0  0  0  0  0  0  0  0  0
    6.3199    0.1553   -2.3002 O   0  0  0  0  0  0  0  0  0  0  0  0
    1.4502   -2.4326   -0.4827 C   0  0  0  0  0  0  0  0  0  0  0  0
    0.1549   -1.9731   -0.7062 C   0  0  0  0  0  0  0  0  0  0  0  0
  1  2  1  0
  2  3  1  0
  3  4  2  0
  4  5  1  0
  5  6  2  0
  6  7  1  0
  6  8  1  0
  8  9  1  0
  9 10  2  0
  4 11  1  0
 11 12  1  0
 12 13  1  0
 13 14  1  1
 14 15  1  0
 15 16  1  0
 16 17  2  0
 17 18  1  0
 18 19  2  0
 19 20  1  0
 20 21  2  0
 20 22  1  0
 23 22  1  1
 23 24  1  0
 24 25  1  0
 25 26  1  0
 26 27  2  0
 26 28  1  0
 23 29  1  0
 29 30  2  0
 29 31  1  0
 19 32  1  0
 32 33  2  0
 13  2  1  0
 33 16  1  0
  9  3  1  0
M  END
>  <zinc_id>  (17) 
ZINC000002005305

>  <smiles>  (17) 
CN1c2c(nc(N)[nH]c2=O)NC[C@@H]1CNc1ccc(C(=O)N[C@@H](CCC(=O)O)C(=O)O)cc1

$$$$

     RDKit          3D

 30 34  0  0  0  0  0  0  0  0999 V2000
    3.0416    1.6449    2.8257 C   0  0  0  0  0  0  0  0  0  0  0  0
    2.2065    0.5117    2.6189 O   0  0  0  0  0  0  0  0  0  0  0  0
    2.0519    0.0837    1.3225 C   0  0  0  0  0  0  0  0  0  0  0  0
    0.7913   -0.1349    0.7711 C   0  0  0  0  0  0  0  0  0  0  0  0
    0.7265   -0.7805   -0.3827 C   0  0  0  0  0  0  0  0  0  0  0  0
   -0.5189   -0.6983   -1.3826 C   0  0  2  0  0  0  0  0  0  0  0  0
   -1.4399    0.2697   -0.4849 C   0  0  0  0  0  0  0  0  0  0  0  0
   -0.9844    1.5465   -0.4028 C   0  0  0  0  0  0  0  0  0  0  0  0
   -1.9016    2.5740   -0.2188 C   0  0  0  0  0  0  0  0  0  0  0  0
   -3.1981    2.4021   -0.6914 C   0  0  0  0  0  0  0  0  0  0  0  0
   -3.6902    1.1062   -0.5401 C   0  0  0  0  0  0  0  0  0  0  0  0
   -2.8098    0.0672   -0.6120 C   0  0  0  0  0  0  0  0  0  0  0  0
   -3.3264   -1.3624   -0.0544 C   0  0  2  0  0  0  0  0  0  0  0  0
   -3.8085   -0.7871    1.2652 O   0  0  0  0  0  0  0  0  0  0  0  0
   -1.7769   -1.6830    0.5888 C   0  0  1  0  0  0  0  0  0  0  0  0
   -2.0521   -3.2220    0.9246 C   0  0  0  0  0  0  0  0  0  0  0  0
   -0.7415   -3.6732    0.6998 O   0  0  0  0  0  0  0  0  0  0  0  0
   -0.0748   -2.9296   -0.2818 C   0  0  0  0  0  0  0  0  0  0  0  0
    0.7889   -3.5434   -0.9797 O   0  0  0  0  0  0  0  0  0  0  0  0
   -1.2899   -2.1606   -0.9423 C   0  0  2  0  0  0  0  0  0  0  0  0
   -3.7929    3.6467   -0.5250 O   0  0  0  0  0  0  0  0  0  0  0  0
   -2.9694    4.4876    0.2817 C   0  0  0  0  0  0  0  0  0  0  0  0
   -1.6911    3.8889    0.1382 O   0  0  0  0  0  0  0  0  0  0  0  0
    1.8391   -0.7081   -1.2231 C   0  0  0  0  0  0  0  0  0  0  0  0
    3.0647   -0.2312   -0.8012 C   0  0  0  0  0  0  0  0  0  0  0  0
    4.1402   -0.0597   -1.6807 O   0  0  0  0  0  0  0  0  0  0  0  0
    4.2894    1.1092   -2.4757 C   0  0  0  0  0  0  0  0  0  0  0  0
    3.2065   -0.0842    0.5686 C   0  0  0  0  0  0  0  0  0  0  0  0
    4.4672   -0.2084    1.1188 O   0  0  0  0  0  0  0  0  0  0  0  0
    5.4526   -1.0721    0.5555 C   0  0  0  0  0  0  0  0  0  0  0  0
  1  2  1  0
  2  3  1  0
  3  4  2  0
  4  5  1  0
  6  5  1  1
  6  7  1  0
  7  8  2  0
  8  9  1  0
  9 10  2  0
 10 11  1  0
 11 12  2  0
 12 13  1  0
 13 14  1  1
 13 15  1  0
 15 16  1  1
 16 17  1  0
 17 18  1  0
 18 19  2  0
 20 18  1  1
 10 21  1  0
 21 22  1  0
 22 23  1  0
  5 24  2  0
 24 25  1  0
 25 26  1  0
 26 27  1  0
 25 28  2  0
 28 29  1  0
 29 30  1  0
 28  3  1  0
 20  6  1  0
 12  7  1  0
 20 15  1  0
 23  9  1  0
M  END
>  <zinc_id>  (18) 
ZINC000003861806

>  <smiles>  (18) 
COc1cc([C@@H]2c3cc4c(cc3[C@H](O)[C@H]3COC(=O)[C@H]23)OCO4)cc(OC)c1OC

$$$$

     RDKit          3D

 12 11  0  0  0  0  0  0  0  0999 V2000
   -2.9453   -1.6062    1.0486 O   0  0  0  0  0  0  0  0  0  0  0  0
   -2.5186   -1.1272    0.1376 C   0  0  0  0  0  0  0  0  0  0  0  0
   -1.3057   -0.2077    0.6940 C   0  0  2  0  0  0  0  0  0  0  0  0
   -2.0082    1.0856    0.3264 O   0  0  0  0  0  0  0  0  0  0  0  0
   -0.3915   -0.3414   -0.7690 C   0  0  1  0  0  0  0  0  0  0  0  0
   -1.3515    0.3887   -1.6621 O   0  0  0  0  0  0  0  0  0  0  0  0
    0.4955    1.0230   -0.2579 C   0  0  2  0  0  0  0  0  0  0  0  0
    0.6938    1.5294   -1.6564 O   0  0  0  0  0  0  0  0  0  0  0  0
    2.0547    0.2956   -0.3175 C   0  0  2  0  0  0  0  0  0  0  0  0
    1.6226   -1.1504   -0.2883 O   0  0  0  0  0  0  0  0  0  0  0  0
    2.1875    0.3118    1.3263 C   0  0  0  0  0  0  0  0  0  0  0  0
    3.4667   -0.2012    1.4183 O   0  0  0  0  0  0  0  0  0  0  0  0
  1  2  2  0
  3  2  1  6
  3  4  1  0
  3  5  1  0
  5  6  1  6
  5  7  1  0
  7  8  1  6
  7  9  1  0
  9 10  1  1
  9 11  1  0
 11 12  1  0
M  END
>  <zinc_id>  (19) 
ZINC000100009383

>  <smiles>  (19) 
O=C[C@H](O)[C@@H](O)[C@H](O)[C@H](O)CO

$$$$

     RDKit          3D

 18 20  0  0  0  0  0  0  0  0999 V2000
    4.1104    2.1139   -1.2826 C   0  0  0  0  0  0  0  0  0  0  0  0
    2.9650    1.6548   -0.6261 N   0  0  0  0  0  0  0  0  0  0  0  0
    3.5409    0.3321    0.0517 C   0  0  2  0  0  0  0  0  0  0  0  0
    3.0656   -0.5951   -1.2454 C   0  0  0  0  0  0  0  0  0  0  0  0
    2.7541   -1.9570   -0.6309 C   0  0  0  0  0  0  0  0  0  0  0  0
    1.3267   -1.7722   -0.1872 C   0  0  0  0  0  0  0  0  0  0  0  0
    0.1918   -2.1948   -0.7967 N   0  0  0  0  0  0  0  0  0  0  0  0
   -0.7893   -1.2722   -0.6364 C   0  0  0  0  0  0  0  0  0  0  0  0
   -1.9346   -0.9807   -1.3699 C   0  0  0  0  0  0  0  0  0  0  0  0
   -2.7028    0.0817   -0.9097 C   0  0  0  0  0  0  0  0  0  0  0  0
   -2.4611    0.5758    0.3661 C   0  0  0  0  0  0  0  0  0  0  0  0
   -3.5316    1.1995    1.1543 C   0  0  0  0  0  0  0  0  0  0  0  0
   -4.6998    0.4089    1.3871 N   0  0  0  0  0  0  0  0  0  0  0  0
   -3.7378    2.4222    0.8878 O   0  0  0  0  0  0  0  0  0  0  0  0
   -1.1475    0.5453    0.8211 C   0  0  0  0  0  0  0  0  0  0  0  0
   -0.2399   -0.2712    0.1585 C   0  0  0  0  0  0  0  0  0  0  0  0
    1.1243   -0.4317    0.1513 C   0  0  0  0  0  0  0  0  0  0  0  0
    2.1658    0.1409    0.9607 C   0  0  0  0  0  0  0  0  0  0  0  0
  1  2  1  0
  3  2  1  6
  3  4  1  0
  4  5  1  0
  5  6  1  0
  6  7  1  0
  7  8  1  0
  8  9  2  0
  9 10  1  0
 10 11  2  0
 11 12  1  0
 12 13  1  0
 12 14  2  0
 11 15  1  0
 15 16  2  0
 16 17  1  0
 17 18  1  0
 18  3  1  0
 17  6  2  0
 16  8  1  0
M  END
>  <zinc_id>  (20) 
ZINC000000018635

>  <smiles>  (20) 
CN[C@@H]1CCc2[nH]c3ccc(C(N)=O)cc3c2C1

$$$$

     RDKit          3D

 16 18  0  0  0  0  0  0  0  0999 V2000
   -0.4203    3.2987   -0.0818 C   0  0  0  0  0  0  0  0  0  0  0  0
   -0.4081    2.1197    0.6910 O   0  0  0  0  0  0  0  0  0  0  0  0
   -0.4635    0.8397    0.1470 C   0  0  0  0  0  0  0  0  0  0  0  0
   -1.6547    0.1776    0.2539 C   0  0  0  0  0  0  0  0  0  0  0  0
   -2.8779    0.6603    0.2268 O   0  0  0  0  0  0  0  0  0  0  0  0
   -3.7377   -0.2840   -0.0456 C   0  0  0  0  0  0  0  0  0  0  0  0
   -3.0600   -1.4916    0.0637 C   0  0  0  0  0  0  0  0  0  0  0  0
   -1.7095   -1.1801   -0.0128 C   0  0  0  0  0  0  0  0  0  0  0  0
   -0.5830   -1.7848   -0.5026 C   0  0  0  0  0  0  0  0  0  0  0  0
    0.6633   -1.1711   -0.5322 C   0  0  0  0  0  0  0  0  0  0  0  0
    1.8315   -1.8877   -0.3019 C   0  0  0  0  0  0  0  0  0  0  0  0
    2.9585   -1.2318    0.1807 C   0  0  0  0  0  0  0  0  0  0  0  0
    2.9599    0.1500    0.0260 C   0  0  0  0  0  0  0  0  0  0  0  0
    3.9676    0.7794    0.4714 O   0  0  0  0  0  0  0  0  0  0  0  0
    1.8503    0.8049   -0.2755 O   0  0  0  0  0  0  0  0  0  0  0  0
    0.6838    0.2007   -0.3081 C   0  0  0  0  0  0  0  0  0  0  0  0
  1  2  1  0
  2  3  1  0
  3  4  2  0
  4  5  1  0
  5  6  1  0
  6  7  2  0
  7  8  1  0
  8  9  2  0
  9 10  1  0
 10 11  1  0
 11 12  2  0
 12 13  1  0
 13 14  2  0
 13 15  1  0
 15 16  1  0
 16  3  1  0
  8  4  1  0
 16 10  2  0
M  END
>  <zinc_id>  (21) 
ZINC000002548959

>  <smiles>  (21) 
COc1c2occc2cc2ccc(=O)oc12

$$$$

     RDKit          3D

 24 27  0  0  0  0  0  0  0  0999 V2000
    5.3615    0.9105    0.3927 C   0  0  0  0  0  0  0  0  0  0  0  0
    5.1764    0.5931   -0.0866 C   0  0  0  0  0  0  0  0  0  0  0  0
    4.3601   -0.7835   -0.2408 C   0  0  1  0  0  0  0  0  0  0  0  0
    3.3805   -0.4536    1.0695 C   0  0  0  0  0  0  0  0  0  0  0  0
    2.1355    0.0952    0.4483 N   0  0  0  0  0  0  0  0  0  0  0  0
    2.3182    1.3236   -0.3424 C   0  0  0  0  0  0  0  0  0  0  0  0
    3.3471    1.1988   -1.5584 C   0  0  0  0  0  0  0  0  0  0  0  0
    2.9048   -0.0905   -0.7533 C   0  0  1  0  0  0  0  0  0  0  0  0
    2.3758   -1.1457   -1.8000 C   0  0  0  0  0  0  0  0  0  0  0  0
    1.4953   -1.0947   -0.3675 C   0  0  2  0  0  0  0  0  0  0  0  0
    0.2358   -0.1006   -0.9665 C   0  0  1  0  0  0  0  0  0  0  0  0
   -0.3775   -1.2620   -1.7178 O   0  0  0  0  0  0  0  0  0  0  0  0
   -0.6332   -0.3736    0.3572 C   0  0  0  0  0  0  0  0  0  0  0  0
   -0.1956    0.2446    1.5002 C   0  0  0  0  0  0  0  0  0  0  0  0
   -0.8059    0.0212    2.6879 C   0  0  0  0  0  0  0  0  0  0  0  0
   -2.0477   -0.5076    2.6066 N   0  0  0  0  0  0  0  0  0  0  0  0
   -2.6580   -0.7214    1.4147 C   0  0  0  0  0  0  0  0  0  0  0  0
   -4.0382   -0.8583    1.3431 C   0  0  0  0  0  0  0  0  0  0  0  0
   -4.7226   -0.3312    0.2536 C   0  0  0  0  0  0  0  0  0  0  0  0
   -4.0437    0.1667   -0.8550 C   0  0  0  0  0  0  0  0  0  0  0  0
   -4.5402    1.3238   -1.4692 O   0  0  0  0  0  0  0  0  0  0  0  0
   -4.3489    2.5807   -0.8216 C   0  0  0  0  0  0  0  0  0  0  0  0
   -2.6959   -0.1917   -0.9348 C   0  0  0  0  0  0  0  0  0  0  0  0
   -1.9838   -0.5438    0.2061 C   0  0  0  0  0  0  0  0  0  0  0  0
  1  2  2  0
  3  2  1  1
  3  4  1  0
  4  5  1  0
  5  6  1  0
  6  7  1  0
  8  7  1  6
  8  9  1  0
 10  9  1  6
 10 11  1  0
 11 12  1  6
 11 13  1  0
 13 14  2  0
 14 15  1  0
 15 16  2  0
 16 17  1  0
 17 18  2  0
 18 19  1  0
 19 20  2  0
 20 21  1  0
 21 22  1  0
 20 23  1  0
 23 24  2  0
  8  3  1  0
 24 13  1  0
 10  5  1  0
 24 17  1  0
M  END
>  <zinc_id>  (22) 
ZINC000003831405

>  <smiles>  (22) 
C=C[C@H]1CN2CC[C@H]1C[C@@H]2[C@@H](O)c1ccnc2ccc(OC)cc12

$$$$

     RDKit          3D

 24 27  0  0  0  0  0  0  0  0999 V2000
    5.0987    1.3772   -0.2294 C   0  0  0  0  0  0  0  0  0  0  0  0
    5.0186    0.2918   -0.8648 C   0  0  0  0  0  0  0  0  0  0  0  0
    3.5197    0.3721   -1.5006 C   0  0  1  0  0  0  0  0  0  0  0  0
    2.9910   -1.1958   -1.2346 C   0  0  0  0  0  0  0  0  0  0  0  0
    2.1338   -1.2535   -0.0765 N   0  0  0  0  0  0  0  0  0  0  0  0
    3.0750   -1.7189    0.9757 C   0  0  0  0  0  0  0  0  0  0  0  0
    3.8877   -0.3505    0.9634 C   0  0  0  0  0  0  0  0  0  0  0  0
    2.6515    0.0618   -0.0845 C   0  0  1  0  0  0  0  0  0  0  0  0
    2.2433    1.3599    0.5236 C   0  0  0  0  0  0  0  0  0  0  0  0
    1.4814   -0.1410    0.8163 C   0  0  1  0  0  0  0  0  0  0  0  0
    0.2306    0.0588   -0.3471 C   0  0  2  0  0  0  0  0  0  0  0  0
   -0.1123    1.4876    0.0363 O   0  0  0  0  0  0  0  0  0  0  0  0
   -0.8070   -0.5553    0.7319 C   0  0  0  0  0  0  0  0  0  0  0  0
   -0.7234   -0.1876    2.0349 C   0  0  0  0  0  0  0  0  0  0  0  0
   -1.7933   -0.3732    2.9038 C   0  0  0  0  0  0  0  0  0  0  0  0
   -2.9388   -0.5372    2.2521 N   0  0  0  0  0  0  0  0  0  0  0  0
   -3.0762   -0.8547    0.9430 C   0  0  0  0  0  0  0  0  0  0  0  0
   -4.3018   -0.9045    0.2953 C   0  0  0  0  0  0  0  0  0  0  0  0
   -4.4453   -0.3544   -0.9781 C   0  0  0  0  0  0  0  0  0  0  0  0
   -3.4326    0.2302   -1.6720 C   0  0  0  0  0  0  0  0  0  0  0  0
   -3.4987    1.4045   -2.3940 O   0  0  0  0  0  0  0  0  0  0  0  0
   -3.0069    2.6611   -1.9359 C   0  0  0  0  0  0  0  0  0  0  0  0
   -2.1883   -0.2083   -1.2303 C   0  0  0  0  0  0  0  0  0  0  0  0
   -2.0066   -0.6701    0.0714 C   0  0  0  0  0  0  0  0  0  0  0  0
  1  2  2  0
  3  2  1  1
  3  4  1  0
  4  5  1  0
  5  6  1  0
  6  7  1  0
  8  7  1  1
  8  9  1  0
 10  9  1  6
 10 11  1  0
 11 12  1  1
 11 13  1  0
 13 14  2  0
 14 15  1  0
 15 16  2  0
 16 17  1  0
 17 18  2  0
 18 19  1  0
 19 20  2  0
 20 21  1  0
 21 22  1  0
 20 23  1  0
 23 24  2  0
  8  3  1  0
 24 13  1  0
 10  5  1  0
 24 17  1  0
M  END
>  <zinc_id>  (23) 
ZINC000003831404

>  <smiles>  (23) 
C=C[C@H]1CN2CC[C@H]1C[C@H]2[C@H](O)c1ccnc2ccc(OC)cc12

$$$$

     RDKit          3D

 24 28  0  0  0  0  0  0  0  0999 V2000
    5.5011   -0.2516   -0.3808 C   0  0  0  0  0  0  0  0  0  0  0  0
    4.9601    0.3571   -0.2777 C   0  0  0  0  0  0  0  0  0  0  0  0
    3.6566    0.8556    0.2083 C   0  0  0  0  0  0  0  0  0  0  0  0
    2.6302   -0.1810    0.0994 N   0  0  0  0  0  0  0  0  0  0  0  0
    1.9870   -0.2775    1.3278 C   0  0  0  0  0  0  0  0  0  0  0  0
    0.7046   -0.9959    1.4568 C   0  0  0  0  0  0  0  0  0  0  0  0
   -0.1441   -0.7248    0.2961 C   0  0  1  0  0  0  0  0  0  0  0  0
   -0.9979    0.4255    0.2940 C   0  0  0  0  0  0  0  0  0  0  0  0
   -2.2473    0.2299    0.7637 C   0  0  0  0  0  0  0  0  0  0  0  0
   -2.8933    1.3892    1.1919 C   0  0  0  0  0  0  0  0  0  0  0  0
   -3.8461    1.2283    2.2046 O   0  0  0  0  0  0  0  0  0  0  0  0
   -2.3040    2.6247    0.9264 C   0  0  0  0  0  0  0  0  0  0  0  0
   -1.0890    2.7135    0.2439 C   0  0  0  0  0  0  0  0  0  0  0  0
   -0.4303    1.5704   -0.2090 C   0  0  0  0  0  0  0  0  0  0  0  0
    1.0410    1.5009    0.0549 C   0  0  0  0  0  0  0  0  0  0  0  0
    1.6856    0.4310   -1.0045 C   0  0  2  0  0  0  0  0  0  0  0  0
    0.6207   -0.8035   -0.9003 C   0  0  1  0  0  0  0  0  0  0  0  0
    1.3878   -1.9814   -0.8936 O   0  0  0  0  0  0  0  0  0  0  0  0
   -0.0190   -0.7382   -2.2349 C   0  0  0  0  0  0  0  0  0  0  0  0
   -1.3356   -1.4174   -2.3565 C   0  0  0  0  0  0  0  0  0  0  0  0
   -2.0497   -1.1579   -1.0772 C   0  0  0  0  0  0  0  0  0  0  0  0
   -3.2483   -1.4376   -1.1339 O   0  0  0  0  0  0  0  0  0  0  0  0
   -1.3269   -1.8461    0.2065 C   0  0  2  0  0  0  0  0  0  0  0  0
   -2.2433   -1.0911    1.1941 O   0  0  0  0  0  0  0  0  0  0  0  0
  1  2  2  0
  2  3  1  0
  3  4  1  0
  4  5  1  0
  5  6  1  0
  7  6  1  1
  7  8  1  0
  8  9  2  0
  9 10  1  0
 10 11  1  0
 10 12  2  0
 12 13  1  0
 13 14  2  0
 14 15  1  0
 16 15  1  1
 16 17  1  0
 17 18  1  1
 17 19  1  0
 19 20  1  0
 20 21  1  0
 21 22  2  0
 23 21  1  6
 23 24  1  0
 16  4  1  0
 17  7  1  0
 23  7  1  0
 14  8  1  0
 24  9  1  0
M  END
>  <zinc_id>  (24) 
ZINC000000389747

>  <smiles>  (24) 
C=CCN1CC[C@]23c4c5ccc(O)c4O[C@H]2C(=O)CC[C@@]3(O)[C@H]1C5

$$$$

     RDKit          3D

 25 26  0  0  0  0  0  0  0  0999 V2000
    4.9514   -0.3324   -0.7495 C   0  0  0  0  0  0  0  0  0  0  0  0
    3.6932   -0.9803   -0.9094 O   0  0  0  0  0  0  0  0  0  0  0  0
    2.4818   -0.3079   -0.7703 C   0  0  0  0  0  0  0  0  0  0  0  0
    2.5180    0.9414   -0.9447 O   0  0  0  0  0  0  0  0  0  0  0  0
    1.2588   -1.0104   -0.3615 C   0  0  0  0  0  0  0  0  0  0  0  0
    1.3932   -2.2162    0.1972 C   0  0  0  0  0  0  0  0  0  0  0  0
    2.5522   -3.0595   -0.2161 C   0  0  0  0  0  0  0  0  0  0  0  0
    0.5788   -2.6347    1.2999 N   0  0  0  0  0  0  0  0  0  0  0  0
   -0.7014   -2.0048    1.4408 C   0  0  0  0  0  0  0  0  0  0  0  0
   -1.7520   -2.5027    2.3529 C   0  0  0  0  0  0  0  0  0  0  0  0
   -0.9834   -0.9741    0.6394 C   0  0  0  0  0  0  0  0  0  0  0  0
   -2.3321   -0.8537    0.0893 C   0  0  0  0  0  0  0  0  0  0  0  0
   -3.2436   -0.3951    0.8396 O   0  0  0  0  0  0  0  0  0  0  0  0
   -2.7843   -1.6612   -0.9595 O   0  0  0  0  0  0  0  0  0  0  0  0
   -4.0578   -2.2722   -0.9642 C   0  0  0  0  0  0  0  0  0  0  0  0
    0.1735   -0.1823    0.1924 C   0  0  0  0  0  0  0  0  0  0  0  0
   -0.1560    1.0128   -0.5786 C   0  0  0  0  0  0  0  0  0  0  0  0
   -0.4241    1.0703   -1.9172 C   0  0  0  0  0  0  0  0  0  0  0  0
   -1.1350    2.1600   -2.4078 C   0  0  0  0  0  0  0  0  0  0  0  0
   -1.3464    3.3028   -1.6560 C   0  0  0  0  0  0  0  0  0  0  0  0
   -1.0746    3.2438   -0.3170 C   0  0  0  0  0  0  0  0  0  0  0  0
   -0.2807    2.2035    0.1298 C   0  0  0  0  0  0  0  0  0  0  0  0
    0.1736    2.2779    1.4854 N   0  0  0  0  0  0  0  0  0  0  0  0
    1.2968    2.8228    1.6216 O   0  0  0  0  0  0  0  0  0  0  0  0
   -0.8000    2.3522    2.4634 O   0  0  0  0  0  0  0  0  0  0  0  0
  1  2  1  0
  2  3  1  0
  3  4  2  0
  3  5  1  0
  5  6  2  0
  6  7  1  0
  6  8  1  0
  8  9  1  0
  9 10  1  0
  9 11  2  0
 11 12  1  0
 12 13  2  0
 12 14  1  0
 14 15  1  0
 11 16  1  0
 16 17  1  0
 17 18  2  0
 18 19  1  0
 19 20  2  0
 20 21  1  0
 21 22  2  0
 22 23  1  0
 23 24  2  0
 23 25  1  0
 16  5  1  0
 22 17  1  0
M  CHG  2  23   1  25  -1
M  END
>  <zinc_id>  (25) 
ZINC000085205448

>  <smiles>  (25) 
COC(=O)C1=C(C)NC(C)=C(C(=O)OC)C1c1ccccc1[N+](=O)[O-]

$$$$

     RDKit          3D

 11 12  0  0  0  0  0  0  0  0999 V2000
   -1.7289    0.4218    0.5033 C   0  0  0  0  0  0  0  0  0  0  0  0
   -1.1341   -0.0017   -0.1540 C   0  0  0  0  0  0  0  0  0  0  0  0
   -1.6061   -0.4412   -1.5037 C   0  0  0  0  0  0  0  0  0  0  0  0
   -0.6095   -1.3492    0.6032 C   0  0  2  0  0  0  0  0  0  0  0  0
    0.3541   -0.5847    1.6745 C   0  0  0  0  0  0  0  0  0  0  0  0
    0.1999    0.8509    1.3713 C   0  0  0  0  0  0  0  0  0  0  0  0
    0.1581    0.7485   -0.1533 C   0  0  2  0  0  0  0  0  0  0  0  0
    0.1756    2.0415   -0.8450 C   0  0  0  0  0  0  0  0  0  0  0  0
    1.2008   -0.2148   -0.5271 C   0  0  0  0  0  0  0  0  0  0  0  0
    2.3945    0.0792   -0.4902 O   0  0  0  0  0  0  0  0  0  0  0  0
    0.5954   -1.5504   -0.4792 C   0  0  0  0  0  0  0  0  0  0  0  0
  1  2  1  0
  2  3  1  0
  2  4  1  0
  4  5  1  1
  5  6  1  0
  6  7  1  0
  7  8  1  6
  7  9  1  0
  9 10  2  0
  9 11  1  0
  7  2  1  0
 11  4  1  0
M  END
>  <zinc_id>  (26) 
ZINC000000967520

>  <smiles>  (26) 
CC1(C)[C@@H]2CC[C@@]1(C)C(=O)C2

$$$$

     RDKit          3D

 21 21  0  0  0  0  0  0  0  0999 V2000
   -5.1575   -2.3682    0.2990 C   0  0  0  0  0  0  0  0  0  0  0  0
   -5.2039   -0.8489    0.2025 C   0  0  0  0  0  0  0  0  0  0  0  0
   -4.0667   -0.3047    0.9692 C   0  0  0  0  0  0  0  0  0  0  0  0
   -3.6519    1.0644    0.8023 C   0  0  0  0  0  0  0  0  0  0  0  0
   -3.0122    1.3656   -0.6643 C   0  0  2  0  0  0  0  0  0  0  0  0
   -4.4648    1.2312   -1.4047 C   0  0  0  0  0  0  0  0  0  0  0  0
   -5.2081    2.4531   -0.8920 C   0  0  0  0  0  0  0  0  0  0  0  0
   -2.6200   -0.1829   -0.9965 C   0  0  0  0  0  0  0  0  0  0  0  0
   -1.7869   -0.6406    0.0178 O   0  0  0  0  0  0  0  0  0  0  0  0
   -0.6627   -0.0406    0.5134 C   0  0  0  0  0  0  0  0  0  0  0  0
   -0.5273    1.1905    0.2401 O   0  0  0  0  0  0  0  0  0  0  0  0
    0.5448   -0.8391    0.7592 C   0  0  0  0  0  0  0  0  0  0  0  0
    1.1770   -1.5114   -0.1950 C   0  0  0  0  0  0  0  0  0  0  0  0
    2.6204   -1.3293   -0.4184 C   0  0  0  0  0  0  0  0  0  0  0  0
    3.0555   -0.3540   -1.3084 C   0  0  0  0  0  0  0  0  0  0  0  0
    4.0802    0.5212   -0.9696 C   0  0  0  0  0  0  0  0  0  0  0  0
    4.8081    0.3445    0.1944 C   0  0  0  0  0  0  0  0  0  0  0  0
    5.3644    1.4601    0.8294 O   0  0  0  0  0  0  0  0  0  0  0  0
    6.6292    1.2156    1.4420 C   0  0  0  0  0  0  0  0  0  0  0  0
    4.6270   -0.8520    0.8558 C   0  0  0  0  0  0  0  0  0  0  0  0
    3.4553   -1.5746    0.6649 C   0  0  0  0  0  0  0  0  0  0  0  0
  1  2  1  0
  2  3  1  0
  3  4  1  0
  5  4  1  1
  5  6  1  0
  6  7  1  0
  5  8  1  0
  8  9  1  0
  9 10  1  0
 10 11  2  0
 10 12  1  0
 12 13  2  0
 13 14  1  0
 14 15  2  0
 15 16  1  0
 16 17  2  0
 17 18  1  0
 18 19  1  0
 17 20  1  0
 20 21  2  0
 21 14  1  0
M  END
>  <zinc_id>  (27) 
ZINC000001633889

>  <smiles>  (27) 
CCCC[C@H](CC)COC(=O)/C=C/c1ccc(OC)cc1

$$$$

     RDKit          3D

 39 38  0  0  0  0  0  0  0  0999 V2000
   11.6599    0.6684   -1.1291 C   0  0  0  0  0  0  0  0  0  0  0  0
   11.4166    0.0127    0.1721 C   0  0  0  0  0  0  0  0  0  0  0  0
   12.2622    0.1202    1.1062 O   0  0  0  0  0  0  0  0  0  0  0  0
   10.0563   -0.2022    0.5450 N   0  0  0  0  0  0  0  0  0  0  0  0
    9.6025    0.4839    1.6111 O   0  0  0  0  0  0  0  0  0  0  0  0
    9.2074   -0.9440   -0.3604 C   0  0  0  0  0  0  0  0  0  0  0  0
    8.8144    0.0200   -1.4720 C   0  0  0  0  0  0  0  0  0  0  0  0
    7.4731    0.6070   -1.0681 C   0  0  0  0  0  0  0  0  0  0  0  0
    6.5576   -0.5721   -0.7755 C   0  0  0  0  0  0  0  0  0  0  0  0
    6.2415   -0.6624    0.7114 C   0  0  0  0  0  0  0  0  0  0  0  0
    4.8120   -0.4762    0.9453 N   0  0  0  0  0  0  0  0  0  0  0  0
    3.9189   -0.2231   -0.1460 C   0  0  0  0  0  0  0  0  0  0  0  0
    4.4324   -0.3472   -1.2996 O   0  0  0  0  0  0  0  0  0  0  0  0
    2.7826    0.7300    0.0451 C   0  0  0  0  0  0  0  0  0  0  0  0
    1.8156    0.2452    1.1043 C   0  0  0  0  0  0  0  0  0  0  0  0
    1.4749   -1.1869    0.8565 C   0  0  0  0  0  0  0  0  0  0  0  0
    1.7683   -1.9893    1.7895 O   0  0  0  0  0  0  0  0  0  0  0  0
    0.6996   -1.5789   -0.2779 N   0  0  0  0  0  0  0  0  0  0  0  0
    0.2898   -2.8783   -0.3152 O   0  0  0  0  0  0  0  0  0  0  0  0
    0.8468   -0.9297   -1.5642 C   0  0  0  0  0  0  0  0  0  0  0  0
   -0.0289    0.2827   -1.7152 C   0  0  0  0  0  0  0  0  0  0  0  0
   -1.1525    0.1789   -0.7142 C   0  0  0  0  0  0  0  0  0  0  0  0
   -2.0453   -0.9650   -1.1807 C   0  0  0  0  0  0  0  0  0  0  0  0
   -3.1844   -0.3191   -1.9568 C   0  0  0  0  0  0  0  0  0  0  0  0
   -3.9584    0.4347   -0.9763 N   0  0  0  0  0  0  0  0  0  0  0  0
   -4.1967   -0.1707    0.2994 C   0  0  0  0  0  0  0  0  0  0  0  0
   -3.7467   -1.3095    0.5856 O   0  0  0  0  0  0  0  0  0  0  0  0
   -4.7732    0.6168    1.4273 C   0  0  0  0  0  0  0  0  0  0  0  0
   -5.7153   -0.3220    2.1645 C   0  0  0  0  0  0  0  0  0  0  0  0
   -6.7223   -0.7905    1.1797 C   0  0  0  0  0  0  0  0  0  0  0  0
   -6.8842   -2.0324    1.0434 O   0  0  0  0  0  0  0  0  0  0  0  0
   -7.2772    0.1030    0.2077 N   0  0  0  0  0  0  0  0  0  0  0  0
   -7.1030    1.4384    0.4132 O   0  0  0  0  0  0  0  0  0  0  0  0
   -8.5383   -0.2667   -0.4288 C   0  0  0  0  0  0  0  0  0  0  0  0
   -9.6116    0.6277    0.1789 C   0  0  0  0  0  0  0  0  0  0  0  0
  -10.1734    1.6028   -0.8157 C   0  0  0  0  0  0  0  0  0  0  0  0
   -9.5508    2.9684   -0.7365 C   0  0  0  0  0  0  0  0  0  0  0  0
  -10.1503    3.8286    0.3459 C   0  0  0  0  0  0  0  0  0  0  0  0
  -11.3197    3.1971    0.9470 N   0  0  0  0  0  0  0  0  0  0  0  0
  1  2  1  0
  2  3  2  0
  2  4  1  0
  4  5  1  0
  4  6  1  0
  6  7  1  0
  7  8  1  0
  8  9  1  0
  9 10  1  0
 10 11  1  0
 11 12  1  0
 12 13  2  0
 12 14  1  0
 14 15  1  0
 15 16  1  0
 16 17  2  0
 16 18  1  0
 18 19  1  0
 18 20  1  0
 20 21  1  0
 21 22  1  0
 22 23  1  0
 23 24  1  0
 24 25  1  0
 25 26  1  0
 26 27  2  0
 26 28  1  0
 28 29  1  0
 29 30  1  0
 30 31  2  0
 30 32  1  0
 32 33  1  0
 32 34  1  0
 34 35  1  0
 35 36  1  0
 36 37  1  0
 37 38  1  0
 38 39  1  0
M  END
>  <zinc_id>  (28) 
ZINC000003830635

>  <smiles>  (28) 
CC(=O)N(O)CCCCCNC(=O)CCC(=O)N(O)CCCCCNC(=O)CCC(=O)N(O)CCCCCN

$$$$

     RDKit          3D

 39 43  0  0  0  0  0  0  0  0999 V2000
    3.4123    4.2705   -1.4495 C   0  0  0  0  0  0  0  0  0  0  0  0
    2.9776    3.4830   -0.3776 O   0  0  0  0  0  0  0  0  0  0  0  0
    3.0288    2.0859   -0.3766 C   0  0  0  0  0  0  0  0  0  0  0  0
    3.6035    1.5584   -1.3617 O   0  0  0  0  0  0  0  0  0  0  0  0
    2.9470    1.3399    0.9156 C   0  0  0  0  0  0  0  0  0  0  0  0
    2.3176   -0.0347    0.7057 C   0  0  2  0  0  0  0  0  0  0  0  0
    2.2624   -0.6284    1.9507 O   0  0  0  0  0  0  0  0  0  0  0  0
    3.2604   -0.7692   -0.2285 C   0  0  0  0  0  0  0  0  0  0  0  0
    4.6265   -0.7347    0.4484 C   0  0  0  0  0  0  0  0  0  0  0  0
    5.0004   -2.1756    0.7127 C   0  0  0  0  0  0  0  0  0  0  0  0
    5.8288   -2.2450    1.9650 C   0  0  0  0  0  0  0  0  0  0  0  0
    6.3571   -0.8548    2.2928 C   0  0  0  0  0  0  0  0  0  0  0  0
    6.9634   -3.2305    1.7537 C   0  0  0  0  0  0  0  0  0  0  0  0
    5.0633   -2.7231    3.0202 O   0  0  0  0  0  0  0  0  0  0  0  0
    1.0270    0.1020    0.0324 C   0  0  0  0  0  0  0  0  0  0  0  0
    0.5786    1.2516   -0.1615 O   0  0  0  0  0  0  0  0  0  0  0  0
    0.0329   -0.8241   -0.0989 O   0  0  0  0  0  0  0  0  0  0  0  0
   -0.5631   -1.0076   -1.5011 C   0  0  2  0  0  0  0  0  0  0  0  0
   -0.6648    0.5451   -1.8827 C   0  0  0  0  0  0  0  0  0  0  0  0
    0.3202    0.9411   -2.8184 O   0  0  0  0  0  0  0  0  0  0  0  0
    1.1199    0.1101   -3.5818 C   0  0  0  0  0  0  0  0  0  0  0  0
   -1.8486    0.6840   -2.4424 C   0  0  0  0  0  0  0  0  0  0  0  0
   -2.7983   -0.3307   -2.2103 C   0  0  2  0  0  0  0  0  0  0  0  0
   -2.9330   -1.4019   -3.2587 C   0  0  0  0  0  0  0  0  0  0  0  0
   -4.3271   -1.9585   -3.0529 C   0  0  0  0  0  0  0  0  0  0  0  0
   -5.0679   -0.7195   -2.5908 C   0  0  0  0  0  0  0  0  0  0  0  0
   -4.1137    0.0018   -1.8021 N   0  0  0  0  0  0  0  0  0  0  0  0
   -4.3536    1.4348   -1.9044 C   0  0  0  0  0  0  0  0  0  0  0  0
   -3.4324    2.0229   -0.8723 C   0  0  0  0  0  0  0  0  0  0  0  0
   -3.0585    1.1029    0.1932 C   0  0  0  0  0  0  0  0  0  0  0  0
   -3.5516    1.5539    1.4132 C   0  0  0  0  0  0  0  0  0  0  0  0
   -3.6164    0.6391    2.4572 C   0  0  0  0  0  0  0  0  0  0  0  0
   -2.5807   -0.2889    2.4730 C   0  0  0  0  0  0  0  0  0  0  0  0
   -2.0808   -0.6939    1.2538 C   0  0  0  0  0  0  0  0  0  0  0  0
   -2.1660    0.0799    0.0922 C   0  0  0  0  0  0  0  0  0  0  0  0
   -2.1864   -1.1280   -0.9466 C   0  0  2  0  0  0  0  0  0  0  0  0
   -2.7022   -0.8749    3.7394 O   0  0  0  0  0  0  0  0  0  0  0  0
   -4.0719   -0.8255    4.1383 C   0  0  0  0  0  0  0  0  0  0  0  0
   -4.6106    0.2427    3.3612 O   0  0  0  0  0  0  0  0  0  0  0  0
  1  2  1  0
  2  3  1  0
  3  4  2  0
  3  5  1  0
  6  5  1  1
  6  7  1  0
  6  8  1  0
  8  9  1  0
  9 10  1  0
 10 11  1  0
 11 12  1  0
 11 13  1  0
 11 14  1  0
  6 15  1  0
 15 16  2  0
 15 17  1  0
 18 17  1  1
 18 19  1  0
 19 20  1  0
 20 21  1  0
 19 22  2  0
 23 22  1  6
 23 24  1  0
 24 25  1  0
 25 26  1  0
 26 27  1  0
 27 28  1  0
 28 29  1  0
 29 30  1  0
 30 31  2  0
 31 32  1  0
 32 33  2  0
 33 34  1  0
 34 35  2  0
 36 35  1  1
 33 37  1  0
 37 38  1  0
 38 39  1  0
 36 18  1  0
 27 23  1  0
 35 30  1  0
 36 23  1  0
 39 32  1  0
M  END
>  <zinc_id>  (29) 
ZINC000026011099

>  <smiles>  (29) 
COC(=O)C[C@](O)(CCCC(C)(C)O)C(=O)O[C@@H]1C(OC)=C[C@]23CCCN2CCc2cc4c(cc2[C@H]13)OCO4

$$$$

     RDKit          3D

 19 20  0  0  0  0  0  0  0  0999 V2000
    4.0469   -0.5053   -1.4238 C   0  0  0  0  0  0  0  0  0  0  0  0
    2.6285    0.3447   -1.4549 C   0  0  2  0  0  0  0  0  0  0  0  0
    3.2372    1.4491   -0.4350 C   0  0  0  0  0  0  0  0  0  0  0  0
    3.5917    1.0208    0.6842 O   0  0  0  0  0  0  0  0  0  0  0  0
    4.2749    2.1470   -1.0752 O   0  0  0  0  0  0  0  0  0  0  0  0
    1.9095   -0.5266   -0.2888 C   0  0  0  0  0  0  0  0  0  0  0  0
    2.1881   -1.8778   -0.2967 C   0  0  0  0  0  0  0  0  0  0  0  0
    1.5487   -2.6369    0.6744 C   0  0  0  0  0  0  0  0  0  0  0  0
    0.2856   -2.2276    1.0653 C   0  0  0  0  0  0  0  0  0  0  0  0
   -0.3079   -1.1606    0.4451 C   0  0  0  0  0  0  0  0  0  0  0  0
   -1.7537   -1.0230    0.4733 C   0  0  0  0  0  0  0  0  0  0  0  0
   -2.4694   -1.9891    0.8112 O   0  0  0  0  0  0  0  0  0  0  0  0
   -2.4480    0.1541   -0.0327 C   0  0  0  0  0  0  0  0  0  0  0  0
   -3.5355   -0.0220   -0.8812 C   0  0  0  0  0  0  0  0  0  0  0  0
   -4.1958    1.1120   -1.3241 C   0  0  0  0  0  0  0  0  0  0  0  0
   -3.8987    2.3667   -0.8262 C   0  0  0  0  0  0  0  0  0  0  0  0
   -3.1217    2.4069    0.3177 C   0  0  0  0  0  0  0  0  0  0  0  0
   -2.5173    1.2488    0.7873 C   0  0  0  0  0  0  0  0  0  0  0  0
    0.5369   -0.2813   -0.2104 C   0  0  0  0  0  0  0  0  0  0  0  0
  2  1  1  1
  2  3  1  0
  3  4  2  0
  3  5  1  0
  2  6  1  0
  6  7  2  0
  7  8  1  0
  8  9  2  0
  9 10  1  0
 10 11  1  0
 11 12  2  0
 11 13  1  0
 13 14  2  0
 14 15  1  0
 15 16  2  0
 16 17  1  0
 17 18  2  0
 10 19  2  0
 19  6  1  0
 18 13  1  0
M  END
>  <zinc_id>  (30) 
ZINC000000005560

>  <smiles>  (30) 
C[C@H](C(=O)O)c1cccc(C(=O)c2ccccc2)c1

$$$$

     RDKit          3D

 24 25  0  0  0  0  0  0  0  0999 V2000
    6.1859    1.0661   -0.3203 C   0  0  0  0  0  0  0  0  0  0  0  0
    4.7418    1.4149   -0.1450 C   0  0  0  0  0  0  0  0  0  0  0  0
    4.3637    2.7188    0.1019 C   0  0  0  0  0  0  0  0  0  0  0  0
    3.0356    2.9411    0.4349 C   0  0  0  0  0  0  0  0  0  0  0  0
    2.0808    1.9584    0.2226 C   0  0  0  0  0  0  0  0  0  0  0  0
    2.4894    0.8867   -0.5608 C   0  0  0  0  0  0  0  0  0  0  0  0
    1.5421    0.0251   -1.2037 N   0  0  0  0  0  0  0  0  0  0  0  0
    1.1850   -1.1863   -0.5291 C   0  0  0  0  0  0  0  0  0  0  0  0
    2.1618   -2.1376   -0.2621 C   0  0  0  0  0  0  0  0  0  0  0  0
    1.8709   -3.1853    0.5879 C   0  0  0  0  0  0  0  0  0  0  0  0
    0.7940   -3.0230    1.3925 N   0  0  0  0  0  0  0  0  0  0  0  0
   -0.2184   -2.2063    1.0511 C   0  0  0  0  0  0  0  0  0  0  0  0
   -0.0585   -1.2155    0.0906 C   0  0  0  0  0  0  0  0  0  0  0  0
   -1.4044   -0.6028   -0.8287 S   0  0  0  0  0  0  0  0  0  0  0  0
   -0.9059    0.5376   -1.6829 O   0  0  0  0  0  0  0  0  0  0  0  0
   -1.9837   -1.6368   -1.7477 O   0  0  0  0  0  0  0  0  0  0  0  0
   -2.6455    0.0441    0.1972 N   0  0  0  0  0  0  0  0  0  0  0  0
   -3.8037   -0.5456    0.2428 C   0  0  0  0  0  0  0  0  0  0  0  0
   -3.8584   -1.8841   -0.1548 O   0  0  0  0  0  0  0  0  0  0  0  0
   -4.9861    0.1670    0.6237 N   0  0  0  0  0  0  0  0  0  0  0  0
   -5.0445    1.5917    0.3074 C   0  0  0  0  0  0  0  0  0  0  0  0
   -3.6332    2.1404    0.1302 C   0  0  0  0  0  0  0  0  0  0  0  0
   -5.6938    1.6875   -1.0683 C   0  0  0  0  0  0  0  0  0  0  0  0
    3.7852    0.4440   -0.3284 C   0  0  0  0  0  0  0  0  0  0  0  0
  1  2  1  0
  2  3  2  0
  3  4  1  0
  4  5  2  0
  5  6  1  0
  6  7  1  0
  7  8  1  0
  8  9  2  0
  9 10  1  0
 10 11  2  0
 11 12  1  0
 12 13  2  0
 13 14  1  0
 14 15  2  0
 14 16  2  0
 14 17  1  0
 17 18  2  0
 18 19  1  0
 18 20  1  0
 20 21  1  0
 21 22  1  0
 21 23  1  0
  6 24  2  0
 24  2  1  0
 13  8  1  0
M  END
>  <zinc_id>  (31) 
ZINC000000005823

>  <smiles>  (31) 
Cc1cccc(Nc2ccncc2S(=O)(=O)/N=C(\O)NC(C)C)c1

$$$$

     RDKit          3D

 20 22  0  0  0  0  0  0  0  0999 V2000
    5.1014   -0.1264   -0.7990 C   0  0  0  0  0  0  0  0  0  0  0  0
    4.8166    1.2917   -0.8550 N   0  0  0  0  0  0  0  0  0  0  0  0
    5.7224    1.9670    0.0400 C   0  0  0  0  0  0  0  0  0  0  0  0
    3.4209    1.4435   -0.4506 C   0  0  0  0  0  0  0  0  0  0  0  0
    3.0896    0.3925    0.5730 C   0  0  0  0  0  0  0  0  0  0  0  0
    2.2304   -0.6770   -0.0229 C   0  0  0  0  0  0  0  0  0  0  0  0
    2.4214   -2.0486    0.0190 C   0  0  0  0  0  0  0  0  0  0  0  0
    1.2103   -2.6486    0.0990 N   0  0  0  0  0  0  0  0  0  0  0  0
    0.3365   -1.7657   -0.4434 C   0  0  0  0  0  0  0  0  0  0  0  0
   -1.0123   -1.8745   -0.7555 C   0  0  0  0  0  0  0  0  0  0  0  0
   -1.7881   -0.7243   -0.7300 C   0  0  0  0  0  0  0  0  0  0  0  0
   -1.3327    0.4189   -0.0847 C   0  0  0  0  0  0  0  0  0  0  0  0
   -2.2556    1.2790    0.7178 C   0  0  0  0  0  0  0  0  0  0  0  0
   -3.5961    0.9735    0.2557 N   0  0  0  0  0  0  0  0  0  0  0  0
   -4.5995    0.3661    0.9278 C   0  0  0  0  0  0  0  0  0  0  0  0
   -5.5494    0.0681    0.0094 N   0  0  0  0  0  0  0  0  0  0  0  0
   -5.1443    0.4482   -1.2151 C   0  0  0  0  0  0  0  0  0  0  0  0
   -3.9869    1.1173   -0.9951 N   0  0  0  0  0  0  0  0  0  0  0  0
    0.0412    0.5961   -0.0638 C   0  0  0  0  0  0  0  0  0  0  0  0
    0.8745   -0.4971   -0.2650 C   0  0  0  0  0  0  0  0  0  0  0  0
  1  2  1  0
  2  3  1  0
  2  4  1  0
  4  5  1  0
  5  6  1  0
  6  7  2  0
  7  8  1  0
  8  9  1  0
  9 10  2  0
 10 11  1  0
 11 12  2  0
 12 13  1  0
 13 14  1  0
 14 15  1  0
 15 16  2  0
 16 17  1  0
 17 18  2  0
 12 19  1  0
 19 20  2  0
 20  6  1  0
 20  9  1  0
 18 14  1  0
M  END
>  <zinc_id>  (32) 
ZINC000000005895

>  <smiles>  (32) 
CN(C)CCc1c[nH]c2ccc(Cn3cncn3)cc12

$$$$

     RDKit          3D

 20 21  0  0  0  0  0  0  0  0999 V2000
    5.5599   -1.3601    0.4416 C   0  0  0  0  0  0  0  0  0  0  0  0
    4.5822   -0.6558   -0.0241 O   0  0  0  0  0  0  0  0  0  0  0  0
    3.2213   -0.9681    0.0771 C   0  0  0  0  0  0  0  0  0  0  0  0
    2.3788   -0.8779   -1.0249 C   0  0  0  0  0  0  0  0  0  0  0  0
    1.1670   -0.2042   -0.9002 C   0  0  0  0  0  0  0  0  0  0  0  0
    0.5414   -0.3019    0.2691 C   0  0  0  0  0  0  0  0  0  0  0  0
   -0.6476    0.7329    0.6706 C   0  0  1  0  0  0  0  0  0  0  0  0
   -0.5541    1.6569   -0.7138 C   0  0  0  0  0  0  0  0  0  0  0  0
   -0.4164    3.0089   -0.2332 N   0  0  0  0  0  0  0  0  0  0  0  0
    0.9350    3.3347    0.1522 C   0  0  0  0  0  0  0  0  0  0  0  0
   -1.3880    3.3603    0.7670 C   0  0  0  0  0  0  0  0  0  0  0  0
   -1.8136   -0.2548    0.0146 C   0  0  0  0  0  0  0  0  0  0  0  0
   -1.3565   -0.5861   -1.2311 O   0  0  0  0  0  0  0  0  0  0  0  0
   -1.8007   -1.3888    0.9935 C   0  0  0  0  0  0  0  0  0  0  0  0
   -3.0348   -2.2354    0.8616 C   0  0  0  0  0  0  0  0  0  0  0  0
   -3.8719   -1.7682   -0.2959 C   0  0  0  0  0  0  0  0  0  0  0  0
   -4.2547   -0.3238    0.0038 C   0  0  0  0  0  0  0  0  0  0  0  0
   -3.0551    0.5776    0.0416 C   0  0  0  0  0  0  0  0  0  0  0  0
    1.2294   -0.7133    1.4061 C   0  0  0  0  0  0  0  0  0  0  0  0
    2.5786   -1.0330    1.3081 C   0  0  0  0  0  0  0  0  0  0  0  0
  1  2  1  0
  2  3  1  0
  3  4  2  0
  4  5  1  0
  5  6  2  0
  7  6  1  6
  7  8  1  0
  8  9  1  0
  9 10  1  0
  9 11  1  0
  7 12  1  0
 12 13  1  0
 12 14  1  0
 14 15  1  0
 15 16  1  0
 16 17  1  0
 17 18  1  0
  6 19  1  0
 19 20  2  0
 20  3  1  0
 18 12  1  0
M  END
>  <zinc_id>  (33) 
ZINC000000006016

>  <smiles>  (33) 
COc1ccc([C@@H](CN(C)C)C2(O)CCCCC2)cc1

$$$$

     RDKit          3D

 27 29  0  0  0  0  0  0  0  0999 V2000
    6.2134    0.7393    1.2300 O   0  0  0  0  0  0  0  0  0  0  0  0
    6.4653    0.5805    0.3211 C   0  0  0  0  0  0  0  0  0  0  0  0
    7.7850    0.2330    0.0142 O   0  0  0  0  0  0  0  0  0  0  0  0
    5.4465    0.5191   -0.7744 C   0  0  0  0  0  0  0  0  0  0  0  0
    4.2045    1.1670   -0.1995 C   0  0  0  0  0  0  0  0  0  0  0  0
    3.8517    0.4776    1.1168 C   0  0  0  0  0  0  0  0  0  0  0  0
    2.5075   -0.0547    0.8630 N   0  0  0  0  0  0  0  0  0  0  0  0
    1.6206    1.0393    0.9621 C   0  0  0  0  0  0  0  0  0  0  0  0
    0.7319    1.3225   -0.1830 C   0  0  0  0  0  0  0  0  0  0  0  0
    0.4570    0.2340   -1.1205 C   0  0  0  0  0  0  0  0  0  0  0  0
   -0.8252   -0.1704   -1.3195 O   0  0  0  0  0  0  0  0  0  0  0  0
   -1.4024   -0.4993    0.0540 C   0  0  1  0  0  0  0  0  0  0  0  0
   -2.7179    0.4251   -0.2008 C   0  0  0  0  0  0  0  0  0  0  0  0
   -2.4678    1.6989   -0.6417 C   0  0  0  0  0  0  0  0  0  0  0  0
   -2.9752    2.8443   -0.0902 C   0  0  0  0  0  0  0  0  0  0  0  0
   -3.9024    2.7231    0.9066 C   0  0  0  0  0  0  0  0  0  0  0  0
   -4.5389    4.1725    1.6503 Cl  0  0  0  0  0  0  0  0  0  0  0  0
   -4.1934    1.4712    1.4172 C   0  0  0  0  0  0  0  0  0  0  0  0
   -3.4784    0.3699    0.9639 C   0  0  0  0  0  0  0  0  0  0  0  0
   -2.0742   -1.8672   -0.4936 C   0  0  0  0  0  0  0  0  0  0  0  0
   -3.1357   -1.8662   -1.2776 C   0  0  0  0  0  0  0  0  0  0  0  0
   -3.7943   -3.0698   -1.4990 C   0  0  0  0  0  0  0  0  0  0  0  0
   -3.7156   -3.9993   -0.4737 C   0  0  0  0  0  0  0  0  0  0  0  0
   -2.5321   -4.0220    0.2524 C   0  0  0  0  0  0  0  0  0  0  0  0
   -1.6857   -2.9679    0.1924 N   0  0  0  0  0  0  0  0  0  0  0  0
    1.5105   -0.7858   -1.2944 C   0  0  0  0  0  0  0  0  0  0  0  0
    2.6456   -0.7148   -0.3761 C   0  0  0  0  0  0  0  0  0  0  0  0
  1  2  2  0
  2  3  1  0
  2  4  1  0
  4  5  1  0
  5  6  1  0
  6  7  1  0
  7  8  1  0
  8  9  1  0
  9 10  1  0
 10 11  1  0
 12 11  1  6
 12 13  1  0
 13 14  2  0
 14 15  1  0
 15 16  2  0
 16 17  1  0
 16 18  1  0
 18 19  2  0
 12 20  1  0
 20 21  2  0
 21 22  1  0
 22 23  2  0
 23 24  1  0
 24 25  2  0
 10 26  1  0
 26 27  1  0
 27  7  1  0
 19 13  1  0
 25 20  1  0
M  END
>  <zinc_id>  (34) 
ZINC000000602128

>  <smiles>  (34) 
O=C(O)CCCN1CCC(O[C@@H](c2ccc(Cl)cc2)c2ccccn2)CC1

$$$$

     RDKit          3D

 27 29  0  0  0  0  0  0  0  0999 V2000
   -3.3469    3.2866    1.2222 C   0  0  0  0  0  0  0  0  0  0  0  0
   -2.7092    2.6513    0.1580 O   0  0  0  0  0  0  0  0  0  0  0  0
   -1.6396    1.7974    0.3626 C   0  0  0  0  0  0  0  0  0  0  0  0
   -1.4736    1.4591    1.5778 O   0  0  0  0  0  0  0  0  0  0  0  0
   -0.5337    1.6759   -0.4916 C   0  0  0  0  0  0  0  0  0  0  0  0
    0.0844    2.6284   -1.1718 C   0  0  0  0  0  0  0  0  0  0  0  0
   -0.6311    3.9152   -1.2899 C   0  0  0  0  0  0  0  0  0  0  0  0
    1.5124    2.5084   -1.1702 N   0  0  0  0  0  0  0  0  0  0  0  0
    2.0534    1.4142   -0.4262 C   0  0  0  0  0  0  0  0  0  0  0  0
    3.4105    1.5155    0.1990 C   0  0  0  0  0  0  0  0  0  0  0  0
    1.3576    0.3089   -0.1297 C   0  0  0  0  0  0  0  0  0  0  0  0
    2.1550   -0.9172   -0.3470 C   0  0  0  0  0  0  0  0  0  0  0  0
    2.0714   -1.5875   -1.4177 O   0  0  0  0  0  0  0  0  0  0  0  0
    3.3145   -1.0298    0.4006 O   0  0  0  0  0  0  0  0  0  0  0  0
    4.2902   -1.9755   -0.0362 C   0  0  0  0  0  0  0  0  0  0  0  0
    5.6479   -1.6493    0.5534 C   0  0  0  0  0  0  0  0  0  0  0  0
    4.3396   -1.9203   -1.5599 C   0  0  0  0  0  0  0  0  0  0  0  0
   -0.0223    0.2151   -1.0238 C   0  0  1  0  0  0  0  0  0  0  0  0
   -0.8560   -0.6228    0.1207 C   0  0  0  0  0  0  0  0  0  0  0  0
   -0.1924   -1.6925    0.6501 C   0  0  0  0  0  0  0  0  0  0  0  0
   -0.9329   -2.6576    1.3064 C   0  0  0  0  0  0  0  0  0  0  0  0
   -2.1812   -2.9824    0.8406 C   0  0  0  0  0  0  0  0  0  0  0  0
   -2.7827   -2.0669    0.0121 C   0  0  0  0  0  0  0  0  0  0  0  0
   -4.0055   -1.9494   -0.5407 N   0  0  0  0  0  0  0  0  0  0  0  0
   -4.0406   -0.8274   -1.2159 O   0  0  0  0  0  0  0  0  0  0  0  0
   -2.7981   -0.5500   -1.5238 N   0  0  0  0  0  0  0  0  0  0  0  0
   -2.0912   -0.9474   -0.4380 C   0  0  0  0  0  0  0  0  0  0  0  0
  1  2  1  0
  2  3  1  0
  3  4  2  0
  3  5  1  0
  5  6  2  0
  6  7  1  0
  6  8  1  0
  8  9  1  0
  9 10  1  0
  9 11  2  0
 11 12  1  0
 12 13  2  0
 12 14  1  0
 14 15  1  0
 15 16  1  0
 15 17  1  0
 11 18  1  0
 18 19  1  1
 19 20  2  0
 20 21  1  0
 21 22  2  0
 22 23  1  0
 23 24  2  0
 24 25  1  0
 25 26  1  0
 26 27  2  0
 18  5  1  0
 27 19  1  0
 27 23  1  0
M  END
>  <zinc_id>  (35) 
ZINC000000607939

>  <smiles>  (35) 
COC(=O)C1=C(C)NC(C)=C(C(=O)OC(C)C)[C@H]1c1cccc2nonc12

$$$$

     RDKit          3D

 29 32  0  0  0  0  0  0  0  0999 V2000
   -5.0270   -0.4007   -0.5606 C   0  0  0  0  0  0  0  0  0  0  0  0
   -3.6266   -0.7511   -0.2301 C   0  0  0  0  0  0  0  0  0  0  0  0
   -3.3519   -1.9847    0.3358 C   0  0  0  0  0  0  0  0  0  0  0  0
   -4.2393   -2.7450    0.7874 O   0  0  0  0  0  0  0  0  0  0  0  0
   -2.0388   -2.3841    0.3450 C   0  0  0  0  0  0  0  0  0  0  0  0
   -1.6694   -3.7112    0.5136 C   0  0  0  0  0  0  0  0  0  0  0  0
   -0.3787   -4.1227    0.2042 C   0  0  0  0  0  0  0  0  0  0  0  0
    0.5632   -3.1482   -0.0751 C   0  0  0  0  0  0  0  0  0  0  0  0
    0.2601   -1.7985   -0.0614 C   0  0  0  0  0  0  0  0  0  0  0  0
    1.2610   -0.7925    0.3099 C   0  0  0  0  0  0  0  0  0  0  0  0
    1.6374   -0.7251    1.5168 O   0  0  0  0  0  0  0  0  0  0  0  0
    1.2174    0.4348   -0.3577 O   0  0  0  0  0  0  0  0  0  0  0  0
    2.3427    1.2668   -0.3090 C   0  0  0  0  0  0  0  0  0  0  0  0
    3.1780    1.1080    0.9254 C   0  0  0  0  0  0  0  0  0  0  0  0
    4.3289    0.2991    0.6693 N   0  0  0  0  0  0  0  0  0  0  0  0
    4.6533    0.0974   -0.6979 C   0  0  0  0  0  0  0  0  0  0  0  0
    5.7636    0.9580   -1.2241 C   0  0  0  0  0  0  0  0  0  0  0  0
    6.9840    0.6706   -0.3556 C   0  0  0  0  0  0  0  0  0  0  0  0
    6.6045    1.1821    1.0292 C   0  0  0  0  0  0  0  0  0  0  0  0
    5.4127    0.4575    1.5725 C   0  0  0  0  0  0  0  0  0  0  0  0
   -1.0892   -1.4776   -0.1074 C   0  0  0  0  0  0  0  0  0  0  0  0
   -1.3915   -0.2165   -0.3503 O   0  0  0  0  0  0  0  0  0  0  0  0
   -2.6429    0.1862   -0.4672 C   0  0  0  0  0  0  0  0  0  0  0  0
   -2.9526    1.6043   -0.2598 C   0  0  0  0  0  0  0  0  0  0  0  0
   -2.4639    2.2409    0.8679 C   0  0  0  0  0  0  0  0  0  0  0  0
   -2.3591    3.6228    0.7908 C   0  0  0  0  0  0  0  0  0  0  0  0
   -3.0327    4.2988   -0.2152 C   0  0  0  0  0  0  0  0  0  0  0  0
   -3.9716    3.6081   -0.9666 C   0  0  0  0  0  0  0  0  0  0  0  0
   -3.9714    2.2224   -0.9509 C   0  0  0  0  0  0  0  0  0  0  0  0
  1  2  1  0
  2  3  1  0
  3  4  2  0
  3  5  1  0
  5  6  2  0
  6  7  1  0
  7  8  2  0
  8  9  1  0
  9 10  1  0
 10 11  2  0
 10 12  1  0
 12 13  1  0
 13 14  1  0
 14 15  1  0
 15 16  1  0
 16 17  1  0
 17 18  1  0
 18 19  1  0
 19 20  1  0
  9 21  2  0
 21 22  1  0
 22 23  1  0
 23 24  1  0
 24 25  2  0
 25 26  1  0
 26 27  2  0
 27 28  1  0
 28 29  2  0
 23  2  2  0
 29 24  1  0
 21  5  1  0
 20 15  1  0
M  END
>  <zinc_id>  (36) 
ZINC000000608382

>  <smiles>  (36) 
Cc1c(-c2ccccc2)oc2c(C(=O)OCCN3CCCCC3)cccc2c1=O

$$$$

     RDKit          3D

 23 25  0  0  0  0  0  0  0  0999 V2000
    5.4335   -2.9430   -2.0087 O   0  0  0  0  0  0  0  0  0  0  0  0
    5.2319   -1.6979   -2.0166 C   0  0  0  0  0  0  0  0  0  0  0  0
    4.1826   -0.9142   -2.7210 C   0  0  0  0  0  0  0  0  0  0  0  0
    3.7868    0.1083   -1.7791 N   0  0  0  0  0  0  0  0  0  0  0  0
    2.5139    0.6779   -1.5772 N   0  0  0  0  0  0  0  0  0  0  0  0
    1.5086    0.0180   -1.1471 C   0  0  0  0  0  0  0  0  0  0  0  0
    0.7040    0.4213    0.0127 C   0  0  0  0  0  0  0  0  0  0  0  0
    0.6676    1.6067    0.6908 C   0  0  0  0  0  0  0  0  0  0  0  0
   -0.2520    1.4069    1.7141 C   0  0  0  0  0  0  0  0  0  0  0  0
   -0.7501    0.1168    1.5817 C   0  0  0  0  0  0  0  0  0  0  0  0
   -2.1054   -0.3274    1.9381 C   0  0  0  0  0  0  0  0  0  0  0  0
   -3.0482    0.6029    2.3583 C   0  0  0  0  0  0  0  0  0  0  0  0
   -4.3790    0.4810    1.9743 C   0  0  0  0  0  0  0  0  0  0  0  0
   -4.7664   -0.4442    1.0114 C   0  0  0  0  0  0  0  0  0  0  0  0
   -5.6746   -0.0827   -0.0355 N   0  0  0  0  0  0  0  0  0  0  0  0
   -5.2675    0.6118   -1.0009 O   0  0  0  0  0  0  0  0  0  0  0  0
   -6.8038   -0.8240   -0.2485 O   0  0  0  0  0  0  0  0  0  0  0  0
   -3.9360   -1.5549    0.9121 C   0  0  0  0  0  0  0  0  0  0  0  0
   -2.6308   -1.4871    1.3847 C   0  0  0  0  0  0  0  0  0  0  0  0
    0.1159   -0.4773    0.7843 O   0  0  0  0  0  0  0  0  0  0  0  0
    4.8821    0.2921   -0.8820 C   0  0  0  0  0  0  0  0  0  0  0  0
    4.9275    1.2340   -0.0347 O   0  0  0  0  0  0  0  0  0  0  0  0
    5.6593   -0.8911   -0.9110 N   0  0  0  0  0  0  0  0  0  0  0  0
  1  2  2  0
  2  3  1  0
  3  4  1  0
  4  5  1  0
  5  6  2  0
  6  7  1  0
  7  8  2  0
  8  9  1  0
  9 10  2  0
 10 11  1  0
 11 12  2  0
 12 13  1  0
 13 14  2  0
 14 15  1  0
 15 16  2  0
 15 17  1  0
 14 18  1  0
 18 19  2  0
 10 20  1  0
  4 21  1  0
 21 22  2  0
 21 23  1  0
 23  2  1  0
 20  7  1  0
 19 11  1  0
M  CHG  2  15   1  17  -1
M  END
>  <zinc_id>  (37) 
ZINC000002568036

>  <smiles>  (37) 
O=C1CN(/N=C/c2ccc(-c3ccc([N+](=O)[O-])cc3)o2)C(=O)N1

$$$$

     RDKit          3D

 20 21  0  0  0  0  0  0  0  0999 V2000
    1.7847    1.2745   -1.1487 N   0  0  0  0  0  0  0  0  0  0  0  0
    1.4593    0.2535   -0.1992 C   0  0  0  0  0  0  0  0  0  0  0  0
    2.3175   -0.8259   -0.0243 C   0  0  0  0  0  0  0  0  0  0  0  0
    3.7649   -0.6685   -0.3234 C   0  0  0  0  0  0  0  0  0  0  0  0
    4.3130    0.5327    0.3311 C   0  0  0  0  0  0  0  0  0  0  0  0
    3.6885    1.2200    1.1882 O   0  0  0  0  0  0  0  0  0  0  0  0
    5.6700    0.7998    0.2019 O   0  0  0  0  0  0  0  0  0  0  0  0
    1.7427   -2.0600    0.2547 C   0  0  0  0  0  0  0  0  0  0  0  0
    0.5902   -2.0175    1.0243 C   0  0  0  0  0  0  0  0  0  0  0  0
   -0.1213   -0.8310    1.1550 C   0  0  0  0  0  0  0  0  0  0  0  0
    0.3208    0.3528    0.5788 C   0  0  0  0  0  0  0  0  0  0  0  0
   -0.6898    1.3472    0.1968 C   0  0  0  0  0  0  0  0  0  0  0  0
   -0.5660    2.4837    0.7472 O   0  0  0  0  0  0  0  0  0  0  0  0
   -2.0235    0.9525   -0.2754 C   0  0  0  0  0  0  0  0  0  0  0  0
   -3.1048    1.0929    0.5861 C   0  0  0  0  0  0  0  0  0  0  0  0
   -4.0978    0.1223    0.6587 C   0  0  0  0  0  0  0  0  0  0  0  0
   -4.1496   -0.8813   -0.2772 C   0  0  0  0  0  0  0  0  0  0  0  0
   -5.6592   -2.0364   -0.4848 Br  0  0  0  0  0  0  0  0  0  0  0  0
   -3.1808   -0.9499   -1.2566 C   0  0  0  0  0  0  0  0  0  0  0  0
   -2.0586   -0.1615   -1.1045 C   0  0  0  0  0  0  0  0  0  0  0  0
  1  2  1  0
  2  3  2  0
  3  4  1  0
  4  5  1  0
  5  6  2  0
  5  7  1  0
  3  8  1  0
  8  9  2  0
  9 10  1  0
 10 11  2  0
 11 12  1  0
 12 13  2  0
 12 14  1  0
 14 15  2  0
 15 16  1  0
 16 17  2  0
 17 18  1  0
 17 19  1  0
 19 20  2  0
 11  2  1  0
 20 14  1  0
M  END
>  <zinc_id>  (38) 
ZINC000002570817

>  <smiles>  (38) 
Nc1c(CC(=O)O)cccc1C(=O)c1ccc(Br)cc1

$$$$

     RDKit          3D

 25 26  0  0  0  0  0  0  0  0999 V2000
   -7.8919    0.1376   -0.8139 C   0  0  0  0  0  0  0  0  0  0  0  0
   -7.5080   -0.2198   -0.4780 O   0  0  0  0  0  0  0  0  0  0  0  0
   -6.2619   -0.6427    0.0006 C   0  0  0  0  0  0  0  0  0  0  0  0
   -5.7661   -0.1417    1.1917 C   0  0  0  0  0  0  0  0  0  0  0  0
   -4.4532    0.2210    1.3682 C   0  0  0  0  0  0  0  0  0  0  0  0
   -3.5569   -0.0178    0.3358 C   0  0  0  0  0  0  0  0  0  0  0  0
   -2.3192    0.7044    0.1819 C   0  0  0  0  0  0  0  0  0  0  0  0
   -1.0617   -0.2492    0.7214 C   0  0  1  0  0  0  0  0  0  0  0  0
   -1.9464   -1.6680    0.7818 C   0  0  0  0  0  0  0  0  0  0  0  0
   -0.6147   -0.5579   -0.7803 N   0  0  0  0  0  0  0  0  0  0  0  0
    0.7181   -0.1379   -0.9347 C   0  0  0  0  0  0  0  0  0  0  0  0
    1.0618    0.8425    0.3931 C   0  0  2  0  0  0  0  0  0  0  0  0
    0.6848    2.1168   -0.4117 O   0  0  0  0  0  0  0  0  0  0  0  0
    2.6594    1.0206   -0.0189 C   0  0  0  0  0  0  0  0  0  0  0  0
    3.2642    1.5933    1.0999 C   0  0  0  0  0  0  0  0  0  0  0  0
    4.3643    1.0208    1.7313 C   0  0  0  0  0  0  0  0  0  0  0  0
    5.0413   -0.0092    1.0886 C   0  0  0  0  0  0  0  0  0  0  0  0
    5.8295   -0.9090    1.8063 O   0  0  0  0  0  0  0  0  0  0  0  0
    4.5572   -0.4134   -0.1515 C   0  0  0  0  0  0  0  0  0  0  0  0
    5.4949   -1.0005   -1.0257 N   0  0  0  0  0  0  0  0  0  0  0  0
    6.8111   -0.4631   -1.2028 C   0  0  0  0  0  0  0  0  0  0  0  0
    6.9863    0.7298   -0.8091 O   0  0  0  0  0  0  0  0  0  0  0  0
    3.2519   -0.1240   -0.4726 C   0  0  0  0  0  0  0  0  0  0  0  0
   -4.0068   -0.7573   -0.7512 C   0  0  0  0  0  0  0  0  0  0  0  0
   -5.3378   -1.0751   -0.9447 C   0  0  0  0  0  0  0  0  0  0  0  0
  1  2  1  0
  2  3  1  0
  3  4  2  0
  4  5  1  0
  5  6  2  0
  6  7  1  0
  8  7  1  6
  8  9  1  0
  8 10  1  0
 10 11  1  0
 12 11  1  6
 12 13  1  0
 12 14  1  0
 14 15  2  0
 15 16  1  0
 16 17  2  0
 17 18  1  0
 17 19  1  0
 19 20  1  0
 20 21  1  0
 21 22  2  0
 19 23  2  0
  6 24  1  0
 24 25  2  0
 25  3  1  0
 23 14  1  0
M  END
>  <zinc_id>  (39) 
ZINC000002599970

>  <smiles>  (39) 
COc1ccc(C[C@@H](C)NC[C@H](O)c2ccc(O)c(NC=O)c2)cc1

$$$$

     RDKit          3D

 21 22  0  0  0  0  0  0  0  0999 V2000
   -4.2767   -3.0669   -0.1949 C   0  0  0  0  0  0  0  0  0  0  0  0
   -4.0134   -1.6387    0.1083 C   0  0  0  0  0  0  0  0  0  0  0  0
   -4.6368   -0.9899    0.9925 O   0  0  0  0  0  0  0  0  0  0  0  0
   -2.8239   -1.1018   -0.3321 O   0  0  0  0  0  0  0  0  0  0  0  0
   -2.7284    0.2715   -0.5774 C   0  0  0  0  0  0  0  0  0  0  0  0
   -3.3928    0.8266   -1.6629 C   0  0  0  0  0  0  0  0  0  0  0  0
   -2.8856    1.9167   -2.3530 C   0  0  0  0  0  0  0  0  0  0  0  0
   -1.5959    2.3328   -2.1295 C   0  0  0  0  0  0  0  0  0  0  0  0
   -0.9894    1.9111   -0.9585 C   0  0  0  0  0  0  0  0  0  0  0  0
   -1.5564    0.8926   -0.2013 C   0  0  0  0  0  0  0  0  0  0  0  0
   -0.7209    0.3977    0.9001 C   0  0  0  0  0  0  0  0  0  0  0  0
   -0.2166    1.2978    1.6379 O   0  0  0  0  0  0  0  0  0  0  0  0
   -0.0143   -0.8291    0.8526 N   0  0  0  0  0  0  0  0  0  0  0  0
    1.4072   -0.9079    1.0430 C   0  0  0  0  0  0  0  0  0  0  0  0
    2.2782   -1.7871    0.4898 N   0  0  0  0  0  0  0  0  0  0  0  0
    3.3012   -1.1844   -0.1044 C   0  0  0  0  0  0  0  0  0  0  0  0
    3.9208   -0.2560    0.7258 C   0  0  0  0  0  0  0  0  0  0  0  0
    5.0963    0.4633    0.3225 N   0  0  0  0  0  0  0  0  0  0  0  0
    5.0259    1.3431   -0.5731 O   0  0  0  0  0  0  0  0  0  0  0  0
    6.2903   -0.1961    0.4230 O   0  0  0  0  0  0  0  0  0  0  0  0
    2.5312    0.2718    1.5917 S   0  0  0  0  0  0  0  0  0  0  0  0
  1  2  1  0
  2  3  2  0
  2  4  1  0
  4  5  1  0
  5  6  2  0
  6  7  1  0
  7  8  2  0
  8  9  1  0
  9 10  2  0
 10 11  1  0
 11 12  2  0
 11 13  1  0
 13 14  1  0
 14 15  2  0
 15 16  1  0
 16 17  2  0
 17 18  1  0
 18 19  2  0
 18 20  1  0
 17 21  1  0
 10  5  1  0
 21 14  1  0
M  CHG  2  18   1  20  -1
M  END
>  <zinc_id>  (40) 
ZINC000003956788

>  <smiles>  (40) 
CC(=O)Oc1ccccc1C(=O)Nc1ncc([N+](=O)[O-])s1

$$$$

     RDKit          3D

 24 27  0  0  0  0  0  0  0  0999 V2000
   -3.0220   -2.8164   -0.7655 C   0  0  0  0  0  0  0  0  0  0  0  0
   -3.0734   -1.6313   -0.7417 C   0  0  0  0  0  0  0  0  0  0  0  0
   -3.1852   -0.1534   -0.6948 C   0  0  2  0  0  0  0  0  0  0  0  0
   -4.5008    0.1710   -0.6002 O   0  0  0  0  0  0  0  0  0  0  0  0
   -2.6458    0.2963   -1.9973 C   0  0  0  0  0  0  0  0  0  0  0  0
   -1.2073    0.4728   -1.6690 C   0  0  0  0  0  0  0  0  0  0  0  0
   -1.4992    1.5116   -0.4383 C   0  0  2  0  0  0  0  0  0  0  0  0
    0.0455    1.5899    0.2496 C   0  0  2  0  0  0  0  0  0  0  0  0
    0.7953    1.1705   -1.1201 C   0  0  0  0  0  0  0  0  0  0  0  0
    2.0347    1.9127   -0.6682 C   0  0  0  0  0  0  0  0  0  0  0  0
    2.4706    1.0281    0.3731 C   0  0  0  0  0  0  0  0  0  0  0  0
    3.7377    0.5867    0.2270 C   0  0  0  0  0  0  0  0  0  0  0  0
    4.0446   -0.8244   -0.0759 C   0  0  0  0  0  0  0  0  0  0  0  0
    5.2304   -1.2186   -0.4392 N   0  0  0  0  0  0  0  0  0  0  0  0
    5.7829   -2.3502    0.0749 O   0  0  0  0  0  0  0  0  0  0  0  0
    2.9574   -1.4369   -0.9094 C   0  0  0  0  0  0  0  0  0  0  0  0
    1.5980   -1.0104   -0.5539 C   0  0  0  0  0  0  0  0  0  0  0  0
    1.7586   -0.2862    0.9027 C   0  0  2  0  0  0  0  0  0  0  0  0
    0.1583    0.2112    1.1619 C   0  0  2  0  0  0  0  0  0  0  0  0
   -0.5126   -0.9094    0.2105 C   0  0  0  0  0  0  0  0  0  0  0  0
   -1.7569   -0.6498    1.0550 C   0  0  0  0  0  0  0  0  0  0  0  0
   -2.3130    0.4415    0.4223 C   0  0  2  0  0  0  0  0  0  0  0  0
   -3.3000    1.3177    1.2075 C   0  0  0  0  0  0  0  0  0  0  0  0
   -3.5978    2.5769    0.3933 C   0  0  0  0  0  0  0  0  0  0  0  0
  1  2  3  0
  3  2  1  6
  3  4  1  0
  3  5  1  0
  5  6  1  0
  7  6  1  6
  7  8  1  0
  8  9  1  6
  9 10  1  0
 10 11  1  0
 11 12  2  0
 12 13  1  0
 13 14  2  3
 14 15  1  0
 13 16  1  0
 16 17  1  0
 18 17  1  6
 18 19  1  0
 19 20  1  6
 20 21  1  0
 21 22  1  0
 22 23  1  1
 23 24  1  0
 22  3  1  0
 22  7  1  0
 19  8  1  0
 18 11  1  0
M  END
>  <zinc_id>  (41) 
ZINC000256433955

>  <smiles>  (41) 
C#C[C@]1(O)CC[C@@H]2[C@@H]3CCC4=CC(=NO)CC[C@@H]4[C@@H]3CC[C@@]21CC

$$$$

     RDKit          3D

 37 41  0  0  0  0  0  0  0  0999 V2000
   -3.4799    1.6774    2.1696 C   0  0  0  0  0  0  0  0  0  0  0  0
   -4.1299    0.6842    1.8667 C   0  0  0  0  0  0  0  0  0  0  0  0
   -4.5323   -0.3455    2.6682 N   0  0  0  0  0  0  0  0  0  0  0  0
   -5.3499   -1.1395    1.9678 N   0  0  0  0  0  0  0  0  0  0  0  0
   -5.2941   -0.7213    0.6757 C   0  0  0  0  0  0  0  0  0  0  0  0
   -6.3452   -0.9575   -0.3438 C   0  0  0  0  0  0  0  0  0  0  0  0
   -6.6454   -2.3898   -0.6058 C   0  0  0  0  0  0  0  0  0  0  0  0
   -7.6278   -0.2278   -0.0519 C   0  0  0  0  0  0  0  0  0  0  0  0
   -4.2431    0.1500    0.6694 N   0  0  0  0  0  0  0  0  0  0  0  0
   -4.1173    0.9428   -0.7022 C   0  0  2  0  0  0  0  0  0  0  0  0
   -3.5635   -0.3780   -1.3933 C   0  0  0  0  0  0  0  0  0  0  0  0
   -2.2091   -0.9446   -0.6825 C   0  0  1  0  0  0  0  0  0  0  0  0
   -1.7517   -1.2982   -2.2474 C   0  0  0  0  0  0  0  0  0  0  0  0
   -2.3802    0.0451   -2.6952 C   0  0  0  0  0  0  0  0  0  0  0  0
   -1.6501    1.1826   -1.7765 C   0  0  1  0  0  0  0  0  0  0  0  0
   -2.6360    1.5110   -0.5116 C   0  0  0  0  0  0  0  0  0  0  0  0
   -1.0678    0.1123   -0.8211 N   0  0  0  0  0  0  0  0  0  0  0  0
   -0.4465    0.6034    0.1135 C   0  0  0  0  0  0  0  0  0  0  0  0
    0.1852    1.0042    1.2383 C   0  0  0  0  0  0  0  0  0  0  0  0
    1.8142    0.7222    1.2183 C   0  0  2  0  0  0  0  0  0  0  0  0
    1.9849    1.6743   -0.0274 N   0  0  0  0  0  0  0  0  0  0  0  0
    3.0081    1.2848   -0.9068 C   0  0  0  0  0  0  0  0  0  0  0  0
    2.4014    0.5209   -1.6788 O   0  0  0  0  0  0  0  0  0  0  0  0
    4.2392    1.9682   -1.2598 C   0  0  0  0  0  0  0  0  0  0  0  0
    4.9796    2.6237   -0.1632 C   0  0  0  0  0  0  0  0  0  0  0  0
    6.3383    2.1035    0.1358 C   0  0  0  0  0  0  0  0  0  0  0  0
    6.5192    0.6260   -0.0674 C   0  0  0  0  0  0  0  0  0  0  0  0
    5.9611   -0.0630    1.0036 F   0  0  0  0  0  0  0  0  0  0  0  0
    7.8927    0.4031    0.0051 F   0  0  0  0  0  0  0  0  0  0  0  0
    5.9665    0.1391   -1.3769 C   0  0  0  0  0  0  0  0  0  0  0  0
    5.1364    1.1350   -2.1031 C   0  0  0  0  0  0  0  0  0  0  0  0
    1.6747   -0.7037    0.4477 C   0  0  0  0  0  0  0  0  0  0  0  0
    0.9216   -1.4934    1.3355 C   0  0  0  0  0  0  0  0  0  0  0  0
    0.8592   -2.8657    1.2368 C   0  0  0  0  0  0  0  0  0  0  0  0
    1.8184   -3.4883    0.4643 C   0  0  0  0  0  0  0  0  0  0  0  0
    2.8634   -2.7112   -0.0290 C   0  0  0  0  0  0  0  0  0  0  0  0
    2.9054   -1.3866    0.4002 C   0  0  0  0  0  0  0  0  0  0  0  0
  1  2  1  0
  2  3  2  0
  3  4  1  0
  4  5  2  0
  5  6  1  0
  6  7  1  0
  6  8  1  0
  5  9  1  0
 10  9  1  1
 10 11  1  0
 12 11  1  6
 12 13  1  0
 13 14  1  0
 15 14  1  6
 15 16  1  0
 15 17  1  0
 17 18  1  0
 18 19  1  0
 20 19  1  6
 20 21  1  0
 21 22  1  0
 22 23  2  0
 22 24  1  0
 24 25  1  0
 25 26  1  0
 26 27  1  0
 27 28  1  0
 27 29  1  0
 27 30  1  0
 30 31  1  0
 20 32  1  0
 32 33  2  0
 33 34  1  0
 34 35  2  0
 35 36  1  0
 36 37  2  0
  9  2  1  0
 16 10  1  0
 31 24  1  0
 37 32  1  0
 17 12  1  0
M  END
>  <zinc_id>  (42) 
ZINC000100003902

>  <smiles>  (42) 
Cc1nnc(C(C)C)n1[C@H]1C[C@@H]2CC[C@H](C1)N2CC[C@H](NC(=O)C1CCC(F)(F)CC1)c1ccccc1

$$$$

     RDKit          3D

 24 27  0  0  0  0  0  0  0  0999 V2000
    6.2017    0.3115    0.9199 C   0  0  0  0  0  0  0  0  0  0  0  0
    6.3440   -0.9445    0.1999 N   0  0  0  0  0  0  0  0  0  0  0  0
    5.5619   -0.9684   -1.0140 C   0  0  0  0  0  0  0  0  0  0  0  0
    4.1191   -0.7253   -0.7611 C   0  0  0  0  0  0  0  0  0  0  0  0
    3.6060   -0.4025    0.4703 C   0  0  0  0  0  0  0  0  0  0  0  0
    2.3183    0.0563    0.6548 C   0  0  0  0  0  0  0  0  0  0  0  0
    1.6186    0.4763   -0.4598 C   0  0  0  0  0  0  0  0  0  0  0  0
    0.2323    0.9155   -0.2490 C   0  0  0  0  0  0  0  0  0  0  0  0
   -0.5276    1.6904   -1.0622 N   0  0  0  0  0  0  0  0  0  0  0  0
   -1.8207    1.2958   -0.9966 C   0  0  0  0  0  0  0  0  0  0  0  0
   -2.8854    1.2526   -1.8820 C   0  0  0  0  0  0  0  0  0  0  0  0
   -3.8726    0.2844   -1.7463 C   0  0  0  0  0  0  0  0  0  0  0  0
   -4.3957   -0.3744   -2.8195 F   0  0  0  0  0  0  0  0  0  0  0  0
   -4.1246   -0.1360   -0.4468 C   0  0  0  0  0  0  0  0  0  0  0  0
   -3.1648    0.0840    0.5308 C   0  0  0  0  0  0  0  0  0  0  0  0
   -1.9586    0.7106    0.2399 C   0  0  0  0  0  0  0  0  0  0  0  0
   -0.6723    0.4503    0.6990 C   0  0  0  0  0  0  0  0  0  0  0  0
   -0.2766   -0.4198    1.8393 C   0  0  0  0  0  0  0  0  0  0  0  0
   -1.2339   -0.3170    3.0022 C   0  0  0  0  0  0  0  0  0  0  0  0
   -2.4599   -1.0747    2.7629 N   0  0  0  0  0  0  0  0  0  0  0  0
   -3.3963   -0.7197    1.7377 C   0  0  0  0  0  0  0  0  0  0  0  0
   -4.6114   -0.9946    1.9282 O   0  0  0  0  0  0  0  0  0  0  0  0
    2.1101    0.1357   -1.7028 C   0  0  0  0  0  0  0  0  0  0  0  0
    3.2884   -0.5866   -1.8445 C   0  0  0  0  0  0  0  0  0  0  0  0
  1  2  1  0
  2  3  1  0
  3  4  1  0
  4  5  2  0
  5  6  1  0
  6  7  2  0
  7  8  1  0
  8  9  1  0
  9 10  1  0
 10 11  2  0
 11 12  1  0
 12 13  1  0
 12 14  2  0
 14 15  1  0
 15 16  2  0
 16 17  1  0
 17 18  1  0
 18 19  1  0
 19 20  1  0
 20 21  1  0
 21 22  2  0
  7 23  1  0
 23 24  2  0
 24  4  1  0
 17  8  2  0
 16 10  1  0
 21 15  1  0
M  END
>  <zinc_id>  (43) 
ZINC000000025958

>  <smiles>  (43) 
CNCc1ccc(-c2[nH]c3cc(F)cc4c3c2CCNC4=O)cc1

$$$$

     RDKit          3D

 29 32  0  0  0  0  0  0  0  0999 V2000
    2.1493    1.0247   -1.5112 O   0  0  0  0  0  0  0  0  0  0  0  0
    1.7148   -0.3958   -1.2467 C   0  0  2  0  0  0  0  0  0  0  0  0
    0.4641    0.1517   -0.3491 C   0  0  0  0  0  0  0  0  0  0  0  0
   -0.3747   -0.8259    0.0416 N   0  0  0  0  0  0  0  0  0  0  0  0
   -0.9967   -1.8146   -0.5476 C   0  0  0  0  0  0  0  0  0  0  0  0
   -1.9632   -1.4727   -1.8108 C   0  0  2  0  0  0  0  0  0  0  0  0
   -1.7612    0.0210   -1.7565 O   0  0  0  0  0  0  0  0  0  0  0  0
   -3.3679   -1.5214   -0.8056 C   0  0  1  0  0  0  0  0  0  0  0  0
   -2.9069   -0.3620    0.2399 C   0  0  0  0  0  0  0  0  0  0  0  0
   -3.4477    0.9481   -0.0517 C   0  0  0  0  0  0  0  0  0  0  0  0
   -4.9376    0.9130   -0.2188 C   0  0  0  0  0  0  0  0  0  0  0  0
   -5.8088    1.1498    0.8371 C   0  0  0  0  0  0  0  0  0  0  0  0
   -7.0644    0.5550    0.7847 C   0  0  0  0  0  0  0  0  0  0  0  0
   -7.6583    0.2056    1.9552 F   0  0  0  0  0  0  0  0  0  0  0  0
   -7.5373    0.1765   -0.4610 C   0  0  0  0  0  0  0  0  0  0  0  0
   -6.5889   -0.2869   -1.3753 C   0  0  0  0  0  0  0  0  0  0  0  0
   -5.2695   -0.0023   -1.2171 C   0  0  0  0  0  0  0  0  0  0  0  0
   -4.1598   -0.6110   -1.7511 O   0  0  0  0  0  0  0  0  0  0  0  0
    2.6484   -0.6721    0.1742 C   0  0  1  0  0  0  0  0  0  0  0  0
    3.6150   -1.7327   -0.6132 C   0  0  0  0  0  0  0  0  0  0  0  0
    4.7045   -2.0732    0.3978 C   0  0  0  0  0  0  0  0  0  0  0  0
    5.3897   -0.8806    0.9247 C   0  0  0  0  0  0  0  0  0  0  0  0
    6.7557   -0.8231    1.1768 C   0  0  0  0  0  0  0  0  0  0  0  0
    7.3941    0.3699    1.4928 C   0  0  0  0  0  0  0  0  0  0  0  0
    8.6330    0.3224    2.0510 F   0  0  0  0  0  0  0  0  0  0  0  0
    6.6882    1.5663    1.4682 C   0  0  0  0  0  0  0  0  0  0  0  0
    5.3132    1.4549    1.3351 C   0  0  0  0  0  0  0  0  0  0  0  0
    4.7130    0.3174    0.8578 C   0  0  0  0  0  0  0  0  0  0  0  0
    3.6600    0.4524   -0.0212 O   0  0  0  0  0  0  0  0  0  0  0  0
  2  1  1  6
  2  3  1  0
  3  4  1  0
  4  5  1  0
  6  5  1  1
  6  7  1  0
  6  8  1  0
  8  9  1  1
  9 10  1  0
 10 11  1  0
 11 12  2  0
 12 13  1  0
 13 14  1  0
 13 15  2  0
 15 16  1  0
 16 17  2  0
 17 18  1  0
  2 19  1  0
 19 20  1  6
 20 21  1  0
 21 22  1  0
 22 23  2  0
 23 24  1  0
 24 25  1  0
 24 26  2  0
 26 27  1  0
 27 28  2  0
 28 29  1  0
 18  8  1  0
 29 19  1  0
 17 11  1  0
 28 22  1  0
M  END
>  <zinc_id>  (44) 
ZINC000000607986

>  <smiles>  (44) 
O[C@@H](CNC[C@@H](O)[C@H]1CCc2cc(F)ccc2O1)[C@H]1CCc2cc(F)ccc2O1

$$$$

     RDKit          3D

 21 21  0  0  0  0  0  0  0  0999 V2000
   -4.6064    2.5960   -0.6784 C   0  0  0  0  0  0  0  0  0  0  0  0
   -5.1230    1.4011   -0.0569 N   0  0  0  0  0  0  0  0  0  0  0  0
   -4.3722    0.1878    0.0158 C   0  0  0  0  0  0  0  0  0  0  0  0
   -4.8397   -0.7870    0.7902 C   0  0  0  0  0  0  0  0  0  0  0  0
   -4.5177   -2.1369    0.4367 N   0  0  0  0  0  0  0  0  0  0  0  0
   -5.2397   -2.6456   -0.4553 O   0  0  0  0  0  0  0  0  0  0  0  0
   -4.0513   -2.9903    1.4098 O   0  0  0  0  0  0  0  0  0  0  0  0
   -3.0376    0.0701   -0.4314 N   0  0  0  0  0  0  0  0  0  0  0  0
   -2.0645   -0.7881    0.2175 C   0  0  0  0  0  0  0  0  0  0  0  0
   -1.3953   -1.6367   -0.8497 C   0  0  0  0  0  0  0  0  0  0  0  0
   -0.0771   -0.7008   -1.6926 S   0  0  0  0  0  0  0  0  0  0  0  0
    0.3615    0.6732   -0.5964 C   0  0  0  0  0  0  0  0  0  0  0  0
    1.8405    0.9200   -0.6290 C   0  0  0  0  0  0  0  0  0  0  0  0
    2.3137    2.2282   -0.5812 C   0  0  0  0  0  0  0  0  0  0  0  0
    4.0060    1.9396   -0.6574 S   0  0  0  0  0  0  0  0  0  0  0  0
    3.9584    0.2257   -0.5444 C   0  0  0  0  0  0  0  0  0  0  0  0
    5.1223   -0.6756   -0.2627 C   0  0  0  0  0  0  0  0  0  0  0  0
    6.2980    0.0974    0.1290 N   0  0  0  0  0  0  0  0  0  0  0  0
    6.7995    0.8907   -0.9906 C   0  0  0  0  0  0  0  0  0  0  0  0
    5.9271    1.0648    1.1590 C   0  0  0  0  0  0  0  0  0  0  0  0
    2.6973    0.0664   -0.0730 N   0  0  0  0  0  0  0  0  0  0  0  0
  1  2  1  0
  2  3  1  0
  3  4  2  0
  4  5  1  0
  5  6  2  0
  5  7  1  0
  3  8  1  0
  8  9  1  0
  9 10  1  0
 10 11  1  0
 11 12  1  0
 12 13  1  0
 13 14  2  0
 14 15  1  0
 15 16  1  0
 16 17  1  0
 17 18  1  0
 18 19  1  0
 18 20  1  0
 16 21  2  0
 21 13  1  0
M  CHG  2   5   1   7  -1
M  END
>  <zinc_id>  (45) 
ZINC000001530737

>  <smiles>  (45) 
CN/C(=C/[N+](=O)[O-])NCCSCc1csc(CN(C)C)n1

$$$$

     RDKit          3D

 11 11  0  0  0  0  0  0  0  0999 V2000
    2.2053    1.2629   -0.3290 C   0  0  0  0  0  0  0  0  0  0  0  0
    2.5823   -0.2303    0.2327 C   0  0  2  0  0  0  0  0  0  0  0  0
    3.6396   -0.4527   -0.9082 N   0  0  0  0  0  0  0  0  0  0  0  0
    1.3964   -0.9420   -0.6441 C   0  0  0  0  0  0  0  0  0  0  0  0
    0.1846   -0.7173    0.2028 C   0  0  0  0  0  0  0  0  0  0  0  0
   -0.0025    0.4073    0.9768 C   0  0  0  0  0  0  0  0  0  0  0  0
   -1.2080    1.0955    0.8941 C   0  0  0  0  0  0  0  0  0  0  0  0
   -2.3313    0.5305    0.3015 C   0  0  0  0  0  0  0  0  0  0  0  0
   -3.2809    1.3035   -0.3644 O   0  0  0  0  0  0  0  0  0  0  0  0
   -2.2136   -0.8160   -0.0235 C   0  0  0  0  0  0  0  0  0  0  0  0
   -0.9720   -1.4414   -0.0587 C   0  0  0  0  0  0  0  0  0  0  0  0
  2  1  1  6
  2  3  1  0
  2  4  1  0
  4  5  1  0
  5  6  2  0
  6  7  1  0
  7  8  2  0
  8  9  1  0
  8 10  1  0
 10 11  2  0
 11  5  1  0
M  END
>  <zinc_id>  (46) 
ZINC000001690604

>  <smiles>  (46) 
C[C@H](N)Cc1ccc(O)cc1

$$$$

     RDKit          3D

 28 31  0  0  0  0  0  0  0  0999 V2000
    7.4453    0.4766    1.5805 C   0  0  0  0  0  0  0  0  0  0  0  0
    6.7332    0.0450    0.3825 N   0  0  0  0  0  0  0  0  0  0  0  0
    5.8929    0.9597   -0.3223 C   0  0  0  0  0  0  0  0  0  0  0  0
    5.5836    2.0448    0.2566 O   0  0  0  0  0  0  0  0  0  0  0  0
    4.8736    0.3758   -1.1959 C   0  0  0  0  0  0  0  0  0  0  0  0
    4.9743    0.4505   -2.5577 C   0  0  0  0  0  0  0  0  0  0  0  0
    4.0291   -0.1345   -3.3549 C   0  0  0  0  0  0  0  0  0  0  0  0
    3.1189   -1.0165   -2.7857 C   0  0  0  0  0  0  0  0  0  0  0  0
    2.9076   -0.9517   -1.4311 C   0  0  0  0  0  0  0  0  0  0  0  0
    3.8270   -0.3114   -0.6122 C   0  0  0  0  0  0  0  0  0  0  0  0
    3.4369   -0.0286    1.1085 S   0  0  0  0  0  0  0  0  0  0  0  0
    1.6554   -0.0868    1.3397 C   0  0  0  0  0  0  0  0  0  0  0  0
    1.0092   -1.2529    1.7314 C   0  0  0  0  0  0  0  0  0  0  0  0
   -0.3114   -1.4880    1.3668 C   0  0  0  0  0  0  0  0  0  0  0  0
   -1.0098   -0.5313    0.6764 C   0  0  0  0  0  0  0  0  0  0  0  0
   -2.2658   -0.5392    0.0815 C   0  0  0  0  0  0  0  0  0  0  0  0
   -3.4516   -1.1184    0.7054 C   0  0  0  0  0  0  0  0  0  0  0  0
   -4.4920   -1.5699    0.0542 C   0  0  0  0  0  0  0  0  0  0  0  0
   -5.8832   -1.2093    0.3553 C   0  0  0  0  0  0  0  0  0  0  0  0
   -6.2176   -0.7017    1.5989 C   0  0  0  0  0  0  0  0  0  0  0  0
   -7.1341    0.3154    1.7756 C   0  0  0  0  0  0  0  0  0  0  0  0
   -7.6408    0.9583    0.6538 C   0  0  0  0  0  0  0  0  0  0  0  0
   -7.4878    0.2858   -0.5504 C   0  0  0  0  0  0  0  0  0  0  0  0
   -6.6403   -0.7632   -0.6764 N   0  0  0  0  0  0  0  0  0  0  0  0
   -2.1784    0.4229   -0.8671 N   0  0  0  0  0  0  0  0  0  0  0  0
   -1.2274    1.2938   -0.5258 N   0  0  0  0  0  0  0  0  0  0  0  0
   -0.3753    0.6461    0.2962 C   0  0  0  0  0  0  0  0  0  0  0  0
    0.8286    0.9470    0.9161 C   0  0  0  0  0  0  0  0  0  0  0  0
  1  2  1  0
  2  3  1  0
  3  4  2  0
  3  5  1  0
  5  6  2  0
  6  7  1  0
  7  8  2  0
  8  9  1  0
  9 10  2  0
 10 11  1  0
 11 12  1  0
 12 13  2  0
 13 14  1  0
 14 15  2  0
 15 16  1  0
 16 17  1  0
 17 18  2  0
 18 19  1  0
 19 20  2  0
 20 21  1  0
 21 22  2  0
 22 23  1  0
 23 24  2  0
 16 25  2  0
 25 26  1  0
 26 27  1  0
 27 28  2  0
 10  5  1  0
 28 12  1  0
 27 15  1  0
 24 19  1  0
M  END
>  <zinc_id>  (47) 
ZINC000003816287

>  <smiles>  (47) 
CNC(=O)c1ccccc1Sc1ccc2c(/C=C/c3ccccn3)n[nH]c2c1

$$$$

     RDKit          3D

 10  9  0  0  0  0  0  0  0  0999 V2000
    2.7656   -0.0612   -1.1724 C   0  0  0  0  0  0  0  0  0  0  0  0
    2.4511   -0.0252    0.3954 C   0  0  1  0  0  0  0  0  0  0  0  0
    1.9562    1.8277    0.3992 S   0  0  0  0  0  0  0  0  0  0  0  0
    0.9915   -0.5761    0.2607 C   0  0  0  0  0  0  0  0  0  0  0  0
    0.5849   -1.3722    1.1383 O   0  0  0  0  0  0  0  0  0  0  0  0
    0.0789    0.0192   -0.6099 N   0  0  0  0  0  0  0  0  0  0  0  0
   -1.1970   -0.6206   -0.8998 C   0  0  0  0  0  0  0  0  0  0  0  0
   -2.2594   -0.0164   -0.0578 C   0  0  0  0  0  0  0  0  0  0  0  0
   -2.3911   -0.2123    1.1646 O   0  0  0  0  0  0  0  0  0  0  0  0
   -2.9807    1.0371   -0.6184 O   0  0  0  0  0  0  0  0  0  0  0  0
  2  1  1  6
  2  3  1  0
  2  4  1  0
  4  5  2  0
  4  6  1  0
  6  7  1  0
  7  8  1  0
  8  9  2  0
  8 10  1  0
M  END
>  <zinc_id>  (48) 
ZINC000003831551

>  <smiles>  (48) 
C[C@@H](S)C(=O)NCC(=O)O

$$$$

     RDKit          3D

 32 33  0  0  0  0  0  0  0  0999 V2000
    9.7079    1.1695    0.5778 O   0  0  0  0  0  0  0  0  0  0  0  0
    9.2165    0.5090   -0.3076 C   0  0  0  0  0  0  0  0  0  0  0  0
    7.8641    0.0366    0.1127 C   0  0  0  0  0  0  0  0  0  0  0  0
    6.7100    0.3580   -0.5921 C   0  0  0  0  0  0  0  0  0  0  0  0
    5.5114   -0.0277   -0.0362 C   0  0  0  0  0  0  0  0  0  0  0  0
    4.3283   -0.2782   -1.1608 C   0  0  1  0  0  0  0  0  0  0  0  0
    4.4623   -1.8238   -1.0852 O   0  0  0  0  0  0  0  0  0  0  0  0
    3.1171   -0.2763    0.0138 C   0  0  0  0  0  0  0  0  0  0  0  0
    2.8467    1.1477    0.1222 N   0  0  0  0  0  0  0  0  0  0  0  0
    1.4420    1.3575   -0.1487 C   0  0  0  0  0  0  0  0  0  0  0  0
    0.9442    0.5832   -1.3347 C   0  0  0  0  0  0  0  0  0  0  0  0
    0.5237   -0.8184   -0.9965 C   0  0  0  0  0  0  0  0  0  0  0  0
   -0.1040   -0.9404    0.3625 C   0  0  0  0  0  0  0  0  0  0  0  0
   -1.4711   -0.3228    0.4513 C   0  0  0  0  0  0  0  0  0  0  0  0
   -2.4334   -1.3353   -0.1599 C   0  0  0  0  0  0  0  0  0  0  0  0
   -3.4298   -0.5852   -0.7825 O   0  0  0  0  0  0  0  0  0  0  0  0
   -3.5000    0.7105   -0.3021 C   0  0  0  0  0  0  0  0  0  0  0  0
   -4.0425    1.6922   -1.3020 C   0  0  0  0  0  0  0  0  0  0  0  0
   -5.3600    1.4510   -1.6532 O   0  0  0  0  0  0  0  0  0  0  0  0
   -5.8033    0.1858   -1.3109 C   0  0  0  0  0  0  0  0  0  0  0  0
   -6.6831    0.2165   -0.1210 C   0  0  0  0  0  0  0  0  0  0  0  0
   -7.2408    1.3789    0.3839 C   0  0  0  0  0  0  0  0  0  0  0  0
   -7.0741    2.8597   -0.5214 Cl  0  0  0  0  0  0  0  0  0  0  0  0
   -7.8567    1.3088    1.6261 C   0  0  0  0  0  0  0  0  0  0  0  0
   -8.4605    0.1340    2.0656 C   0  0  0  0  0  0  0  0  0  0  0  0
   -8.1126   -1.0179    1.3699 C   0  0  0  0  0  0  0  0  0  0  0  0
   -7.1876   -0.9769    0.3336 C   0  0  0  0  0  0  0  0  0  0  0  0
   -6.5886   -2.4874   -0.3208 Cl  0  0  0  0  0  0  0  0  0  0  0  0
    5.4459   -0.7921    1.0740 C   0  0  0  0  0  0  0  0  0  0  0  0
    6.5894   -0.8490    1.8668 C   0  0  0  0  0  0  0  0  0  0  0  0
    7.7959   -0.8556    1.1769 C   0  0  0  0  0  0  0  0  0  0  0  0
    8.8428   -1.7121    1.4847 O   0  0  0  0  0  0  0  0  0  0  0  0
  1  2  1  0
  2  3  1  0
  3  4  2  0
  4  5  1  0
  6  5  1  1
  6  7  1  0
  6  8  1  0
  8  9  1  0
  9 10  1  0
 10 11  1  0
 11 12  1  0
 12 13  1  0
 13 14  1  0
 14 15  1  0
 15 16  1  0
 16 17  1  0
 17 18  1  0
 18 19  1  0
 19 20  1  0
 20 21  1  0
 21 22  2  0
 22 23  1  0
 22 24  1  0
 24 25  2  0
 25 26  1  0
 26 27  2  0
 27 28  1  0
  5 29  2  0
 29 30  1  0
 30 31  2  0
 31 32  1  0
 31  3  1  0
 27 21  1  0
M  END
>  <zinc_id>  (49) 
ZINC000003991624

>  <smiles>  (49) 
OCc1cc([C@@H](O)CNCCCCCCOCCOCc2c(Cl)cccc2Cl)ccc1O

$$$$

     RDKit          3D

 20 22  0  0  0  0  0  0  0  0999 V2000
   -4.6059   -0.9313   -0.6681 N   0  0  0  0  0  0  0  0  0  0  0  0
   -3.5211   -0.0657   -0.3954 C   0  0  0  0  0  0  0  0  0  0  0  0
   -3.6256    1.2693   -0.3210 N   0  0  0  0  0  0  0  0  0  0  0  0
   -2.5378    2.0430   -0.0820 C   0  0  0  0  0  0  0  0  0  0  0  0
   -2.6929    3.3489   -0.4451 F   0  0  0  0  0  0  0  0  0  0  0  0
   -1.3192    1.5088    0.1773 N   0  0  0  0  0  0  0  0  0  0  0  0
   -1.2106    0.1782    0.2315 C   0  0  0  0  0  0  0  0  0  0  0  0
   -2.3478   -0.6152    0.1098 C   0  0  0  0  0  0  0  0  0  0  0  0
   -1.9266   -1.8840    0.0910 N   0  0  0  0  0  0  0  0  0  0  0  0
   -0.6743   -1.8245    0.6116 C   0  0  0  0  0  0  0  0  0  0  0  0
   -0.1746   -0.6423    0.1572 N   0  0  0  0  0  0  0  0  0  0  0  0
    1.2268   -0.3017    0.8021 C   0  0  2  0  0  0  0  0  0  0  0  0
    1.6894    0.5711   -0.3477 O   0  0  0  0  0  0  0  0  0  0  0  0
    2.9895    0.5005    0.4352 C   0  0  2  0  0  0  0  0  0  0  0  0
    3.8116    1.5560   -0.4975 C   0  0  0  0  0  0  0  0  0  0  0  0
    4.0198    1.0656   -1.7257 O   0  0  0  0  0  0  0  0  0  0  0  0
    3.2886   -0.8634   -0.5393 C   0  0  1  0  0  0  0  0  0  0  0  0
    4.2989   -1.4127    0.4172 O   0  0  0  0  0  0  0  0  0  0  0  0
    2.0139   -1.7115    0.1932 C   0  0  2  0  0  0  0  0  0  0  0  0
    1.2979   -1.7892   -1.1238 O   0  0  0  0  0  0  0  0  0  0  0  0
  1  2  1  0
  2  3  2  0
  3  4  1  0
  4  5  1  0
  4  6  2  0
  6  7  1  0
  7  8  2  0
  8  9  1  0
  9 10  2  0
 10 11  1  0
 12 11  1  6
 12 13  1  0
 13 14  1  0
 14 15  1  6
 15 16  1  0
 14 17  1  0
 17 18  1  1
 17 19  1  0
 19 20  1  6
  8  2  1  0
 19 12  1  0
 11  7  1  0
M  END
>  <zinc_id>  (50) 
ZINC000004216238

>  <smiles>  (50) 
Nc1nc(F)nc2c1ncn2[C@@H]1O[C@H](CO)[C@@H](O)[C@@H]1O

$$$$

     RDKit          3D

 65 73  0  0  0  0  0  0  0  0999 V2000
   11.6266    5.0140    0.9753 C   0  0  0  0  0  0  0  0  0  0  0  0
   12.2302    3.8592    0.5248 O   0  0  0  0  0  0  0  0  0  0  0  0
   11.3809    2.9190   -0.0533 C   0  0  0  0  0  0  0  0  0  0  0  0
   10.6568    3.3113   -0.9805 O   0  0  0  0  0  0  0  0  0  0  0  0
   11.6654    1.5747    0.0177 N   0  0  0  0  0  0  0  0  0  0  0  0
   10.5589    0.5145   -0.3475 C   0  0  2  0  0  0  0  0  0  0  0  0
    9.4240    1.1866    0.5835 C   0  0  0  0  0  0  0  0  0  0  0  0
    9.7312    1.5153    1.7229 O   0  0  0  0  0  0  0  0  0  0  0  0
    8.0831    0.9661    0.1714 N   0  0  0  0  0  0  0  0  0  0  0  0
    7.3892   -0.2140    0.4262 C   0  0  0  0  0  0  0  0  0  0  0  0
    7.1341   -0.8001   -0.9088 C   0  0  0  0  0  0  0  0  0  0  0  0
    7.3822    0.1756   -1.9288 C   0  0  0  0  0  0  0  0  0  0  0  0
    7.5090    1.6155   -1.1447 C   0  0  1  0  0  0  0  0  0  0  0  0
    5.9721    1.6665   -0.6757 C   0  0  0  0  0  0  0  0  0  0  0  0
    5.2044    0.7531   -0.2420 N   0  0  0  0  0  0  0  0  0  0  0  0
    3.9134    0.8742   -0.6032 C   0  0  0  0  0  0  0  0  0  0  0  0
    3.0266   -0.2069   -0.2965 C   0  0  0  0  0  0  0  0  0  0  0  0
    2.6078   -1.1796   -1.2036 C   0  0  0  0  0  0  0  0  0  0  0  0
    1.7129   -2.1485   -0.7481 C   0  0  0  0  0  0  0  0  0  0  0  0
    1.2317   -2.1282    0.5580 C   0  0  0  0  0  0  0  0  0  0  0  0
    1.9343   -1.4027    1.5276 C   0  0  0  0  0  0  0  0  0  0  0  0
    0.9433   -1.0587    2.4637 C   0  0  0  0  0  0  0  0  0  0  0  0
   -0.3201   -1.3376    1.9345 C   0  0  0  0  0  0  0  0  0  0  0  0
    0.0621   -2.3351    1.0807 N   0  0  0  0  0  0  0  0  0  0  0  0
   -1.3001   -2.9175    0.5320 C   0  0  2  0  0  0  0  0  0  0  0  0
   -0.6126   -3.9079   -0.5723 C   0  0  0  0  0  0  0  0  0  0  0  0
    0.1254   -4.8414    0.1542 C   0  0  0  0  0  0  0  0  0  0  0  0
    0.1923   -6.1696   -0.1838 C   0  0  0  0  0  0  0  0  0  0  0  0
   -0.8812   -6.7139   -0.8335 C   0  0  0  0  0  0  0  0  0  0  0  0
   -1.8230   -5.8685   -1.3759 C   0  0  0  0  0  0  0  0  0  0  0  0
   -1.6579   -4.4899   -1.2883 C   0  0  0  0  0  0  0  0  0  0  0  0
   -1.4691   -1.7434   -0.4755 O   0  0  0  0  0  0  0  0  0  0  0  0
   -1.9346   -0.6589    0.2965 C   0  0  0  0  0  0  0  0  0  0  0  0
   -2.4660    0.4812   -0.3193 C   0  0  0  0  0  0  0  0  0  0  0  0
   -3.1854    1.3962    0.4512 C   0  0  0  0  0  0  0  0  0  0  0  0
   -4.6538    1.5448    0.3628 C   0  0  0  0  0  0  0  0  0  0  0  0
   -5.2547    1.4986   -0.8913 C   0  0  0  0  0  0  0  0  0  0  0  0
   -6.4482    0.9398   -0.7201 N   0  0  0  0  0  0  0  0  0  0  0  0
   -6.3995    0.2605    0.3863 C   0  0  0  0  0  0  0  0  0  0  0  0
   -7.6043   -0.5644    1.0582 C   0  0  2  0  0  0  0  0  0  0  0  0
   -6.9099   -1.9810    0.6129 C   0  0  0  0  0  0  0  0  0  0  0  0
   -7.2029   -2.1771   -0.7561 C   0  0  0  0  0  0  0  0  0  0  0  0
   -7.9274   -1.0853   -1.2915 C   0  0  0  0  0  0  0  0  0  0  0  0
   -8.5832   -0.4501   -0.1735 N   0  0  0  0  0  0  0  0  0  0  0  0
   -9.8965   -0.2117   -0.1595 C   0  0  0  0  0  0  0  0  0  0  0  0
  -10.7327   -1.0797   -0.5561 O   0  0  0  0  0  0  0  0  0  0  0  0
  -10.7533    0.9641    0.5115 C   0  0  1  0  0  0  0  0  0  0  0  0
   -9.4998    1.8036    0.9540 N   0  0  0  0  0  0  0  0  0  0  0  0
   -9.1971    3.0198    0.4071 C   0  0  0  0  0  0  0  0  0  0  0  0
   -9.7331    3.4072   -0.6325 O   0  0  0  0  0  0  0  0  0  0  0  0
   -7.9508    3.5535    0.7558 O   0  0  0  0  0  0  0  0  0  0  0  0
   -7.2825    4.4208   -0.1543 C   0  0  0  0  0  0  0  0  0  0  0  0
  -10.9903    1.7557   -0.9111 C   0  0  0  0  0  0  0  0  0  0  0  0
  -12.4733    2.0984   -0.7895 C   0  0  0  0  0  0  0  0  0  0  0  0
  -10.8357    0.9360   -2.0605 C   0  0  0  0  0  0  0  0  0  0  0  0
   -5.6031    1.0339    1.1885 N   0  0  0  0  0  0  0  0  0  0  0  0
   -2.6573    1.5457    1.7291 C   0  0  0  0  0  0  0  0  0  0  0  0
   -1.6318    0.7410    2.2101 C   0  0  0  0  0  0  0  0  0  0  0  0
   -1.5315   -0.5266    1.6401 C   0  0  0  0  0  0  0  0  0  0  0  0
    3.0258   -0.6902    1.0186 C   0  0  0  0  0  0  0  0  0  0  0  0
    3.8582    2.0992   -1.1798 C   0  0  0  0  0  0  0  0  0  0  0  0
    5.1308    2.5794   -1.2369 N   0  0  0  0  0  0  0  0  0  0  0  0
   11.1420   -0.4775    0.8318 C   0  0  0  0  0  0  0  0  0  0  0  0
   12.3272   -1.0947    0.0951 C   0  0  0  0  0  0  0  0  0  0  0  0
   10.2204   -1.5643    1.1048 C   0  0  0  0  0  0  0  0  0  0  0  0
  1  2  1  0
  2  3  1  0
  3  4  2  0
  3  5  1  0
  6  5  1  1
  6  7  1  0
  7  8  2  0
  7  9  1  0
  9 10  1  0
 10 11  1  0
 11 12  1  0
 12 13  1  0
 13 14  1  1
 14 15  2  0
 15 16  1  0
 16 17  1  0
 17 18  2  0
 18 19  1  0
 19 20  2  0
 20 21  1  0
 21 22  1  0
 22 23  2  0
 23 24  1  0
 24 25  1  0
 25 26  1  6
 26 27  2  0
 27 28  1  0
 28 29  2  0
 29 30  1  0
 30 31  2  0
 25 32  1  0
 32 33  1  0
 33 34  2  0
 34 35  1  0
 35 36  1  0
 36 37  2  0
 37 38  1  0
 38 39  1  0
 40 39  1  6
 40 41  1  0
 41 42  1  0
 42 43  1  0
 43 44  1  0
 44 45  1  0
 45 46  2  0
 47 45  1  6
 47 48  1  0
 48 49  1  0
 49 50  2  0
 49 51  1  0
 51 52  1  0
 47 53  1  0
 53 54  1  0
 53 55  1  0
 39 56  2  0
 35 57  2  0
 57 58  1  0
 58 59  2  0
 21 60  2  0
 16 61  2  0
 61 62  1  0
  6 63  1  0
 63 64  1  0
 63 65  1  0
 13  9  1  0
 62 14  1  0
 60 17  1  0
 24 20  1  0
 31 26  1  0
 59 33  1  0
 59 23  1  0
 56 36  1  0
 44 40  1  0
M  END
>  <zinc_id>  (51) 
ZINC000150588351

>  <smiles>  (51) 
COC(=O)N[C@H](C(=O)N1CCC[C@H]1c1nc(-c2ccc3c(c2)O[C@@H](c2ccccc2)n2c-3cc3cc(-c4c[nH]c([C@@H]5CCCN5C(=O)[C@@H](NC(=O)OC)C(C)C)n4)ccc32)c[nH]1)C(C)C

$$$$

     RDKit          3D

 11 11  0  0  0  0  0  0  0  0999 V2000
    2.7953    1.8335    0.1429 C   0  0  0  0  0  0  0  0  0  0  0  0
    2.7177    0.5100   -0.4543 N   0  0  0  0  0  0  0  0  0  0  0  0
    1.6608   -0.2599    0.4554 C   0  0  2  0  0  0  0  0  0  0  0  0
    2.5802   -1.6445    0.4168 C   0  0  0  0  0  0  0  0  0  0  0  0
    0.7961   -0.7521   -0.8753 C   0  0  0  0  0  0  0  0  0  0  0  0
   -0.6326   -0.6173   -0.4589 C   0  0  0  0  0  0  0  0  0  0  0  0
   -1.0457   -0.7778    0.8582 C   0  0  0  0  0  0  0  0  0  0  0  0
   -2.1999   -0.1561    1.3241 C   0  0  0  0  0  0  0  0  0  0  0  0
   -2.6439    0.9667    0.6334 C   0  0  0  0  0  0  0  0  0  0  0  0
   -2.4795    0.8867   -0.7465 C   0  0  0  0  0  0  0  0  0  0  0  0
   -1.5485    0.0106   -1.2956 C   0  0  0  0  0  0  0  0  0  0  0  0
  1  2  1  0
  3  2  1  6
  3  4  1  0
  3  5  1  0
  5  6  1  0
  6  7  2  0
  7  8  1  0
  8  9  2  0
  9 10  1  0
 10 11  2  0
 11  6  1  0
M  END
>  <zinc_id>  (52) 
ZINC000008466459

>  <smiles>  (52) 
CN[C@H](C)Cc1ccccc1

$$$$

     RDKit          3D

 58 62  0  0  0  0  0  0  0  0999 V2000
   -1.5655   -1.7977    2.0158 C   0  0  0  0  0  0  0  0  0  0  0  0
   -1.2622   -2.1544    0.6563 C   0  0  0  0  0  0  0  0  0  0  0  0
    0.1435   -1.4501    0.1639 C   0  0  1  0  0  0  0  0  0  0  0  0
    0.4592   -2.6674   -0.7185 O   0  0  0  0  0  0  0  0  0  0  0  0
    1.7225   -2.4845   -1.1968 C   0  0  0  0  0  0  0  0  0  0  0  0
    2.0487   -3.3252   -2.0954 O   0  0  0  0  0  0  0  0  0  0  0  0
    2.9253   -2.4539   -0.1245 C   0  0  2  0  0  0  0  0  0  0  0  0
    2.0878   -1.6746    1.0381 C   0  0  0  0  0  0  0  0  0  0  0  0
    3.6105   -1.1562   -0.7647 C   0  0  0  0  0  0  0  0  0  0  0  0
    3.8194   -1.3228   -1.9593 O   0  0  0  0  0  0  0  0  0  0  0  0
    3.1730    0.2697   -0.2459 C   0  0  2  0  0  0  0  0  0  0  0  0
    4.3029    1.0234   -1.1402 C   0  0  0  0  0  0  0  0  0  0  0  0
    3.9820    0.2597    1.2698 C   0  0  1  0  0  0  0  0  0  0  0  0
    5.1291    1.1482    0.8717 O   0  0  0  0  0  0  0  0  0  0  0  0
    6.2167    0.6600    1.8098 C   0  0  2  0  0  0  0  0  0  0  0  0
    7.0148    1.9345    1.5457 O   0  0  0  0  0  0  0  0  0  0  0  0
    8.1710    1.6142    2.4705 C   0  0  2  0  0  0  0  0  0  0  0  0
    8.8467    3.0983    2.2463 C   0  0  0  0  0  0  0  0  0  0  0  0
    9.0444    0.9721    1.2272 C   0  0  0  0  0  0  0  0  0  0  0  0
    8.4195   -0.5168    1.4522 C   0  0  2  0  0  0  0  0  0  0  0  0
    9.1470   -1.1456    0.2384 N   0  0  0  0  0  0  0  0  0  0  0  0
    8.3248   -1.6983   -0.7051 C   0  0  0  0  0  0  0  0  0  0  0  0
   10.3863   -0.5906    0.0050 C   0  0  0  0  0  0  0  0  0  0  0  0
    7.0265   -0.1676    0.5357 C   0  0  1  0  0  0  0  0  0  0  0  0
    6.4553   -1.4750    0.9833 O   0  0  0  0  0  0  0  0  0  0  0  0
    3.1168    1.5047    1.8792 C   0  0  2  0  0  0  0  0  0  0  0  0
    4.0610    2.4313    2.5987 C   0  0  0  0  0  0  0  0  0  0  0  0
    2.3897    1.0408    2.9568 O   0  0  0  0  0  0  0  0  0  0  0  0
    3.2649    0.6632    3.9474 C   0  0  0  0  0  0  0  0  0  0  0  0
    2.3007    2.1910    0.9005 C   0  0  0  0  0  0  0  0  0  0  0  0
    0.7165    2.0884    1.3262 C   0  0  1  0  0  0  0  0  0  0  0  0
    0.5765    3.7294    1.3791 C   0  0  0  0  0  0  0  0  0  0  0  0
    0.2338    1.7974   -0.1777 C   0  0  0  0  0  0  0  0  0  0  0  0
    0.5918    2.6809   -0.9737 O   0  0  0  0  0  0  0  0  0  0  0  0
   -1.3122    1.7432   -0.5000 C   0  0  2  0  0  0  0  0  0  0  0  0
   -1.8076    2.1004    1.0100 C   0  0  0  0  0  0  0  0  0  0  0  0
   -1.6879    0.1072   -0.2072 C   0  0  1  0  0  0  0  0  0  0  0  0
   -2.7438    0.1089   -1.3737 N   0  0  0  0  0  0  0  0  0  0  0  0
   -4.1587   -0.1554   -1.0633 C   0  0  0  0  0  0  0  0  0  0  0  0
   -4.9280    0.4740   -2.2164 C   0  0  0  0  0  0  0  0  0  0  0  0
   -5.4048    1.7637   -1.5469 C   0  0  0  0  0  0  0  0  0  0  0  0
   -5.5700    1.5320   -0.0416 C   0  0  0  0  0  0  0  0  0  0  0  0
   -6.4329    0.3496    0.0445 N   0  0  0  0  0  0  0  0  0  0  0  0
   -6.6187   -0.5221    1.0360 C   0  0  0  0  0  0  0  0  0  0  0  0
   -7.9179   -0.9135    1.0528 N   0  0  0  0  0  0  0  0  0  0  0  0
   -8.5328   -0.3057    0.0246 C   0  0  0  0  0  0  0  0  0  0  0  0
   -9.9556   -0.2843   -0.3398 C   0  0  0  0  0  0  0  0  0  0  0  0
  -10.4567   -1.2953   -1.1497 C   0  0  0  0  0  0  0  0  0  0  0  0
  -11.3784   -1.0005   -2.1465 C   0  0  0  0  0  0  0  0  0  0  0  0
  -11.6857    0.3150   -2.4601 C   0  0  0  0  0  0  0  0  0  0  0  0
  -11.4769    1.2031   -1.4575 N   0  0  0  0  0  0  0  0  0  0  0  0
  -10.5878    0.9476   -0.4636 C   0  0  0  0  0  0  0  0  0  0  0  0
   -7.4841    0.1235   -0.7825 C   0  0  0  0  0  0  0  0  0  0  0  0
   -2.1999   -0.6833   -2.4204 C   0  0  0  0  0  0  0  0  0  0  0  0
   -2.7611   -0.8713   -3.5518 O   0  0  0  0  0  0  0  0  0  0  0  0
   -1.3723   -1.6195   -1.7700 O   0  0  0  0  0  0  0  0  0  0  0  0
   -0.5687   -0.6481   -1.0692 C   0  0  2  0  0  0  0  0  0  0  0  0
    0.1616   -0.0287   -2.0231 C   0  0  0  0  0  0  0  0  0  0  0  0
  1  2  1  0
  3  2  1  1
  3  4  1  0
  4  5  1  0
  5  6  2  0
  5  7  1  0
  7  8  1  1
  7  9  1  0
  9 10  2  0
  9 11  1  0
 11 12  1  6
 11 13  1  0
 13 14  1  6
 15 14  1  6
 15 16  1  0
 16 17  1  0
 17 18  1  6
 17 19  1  0
 19 20  1  0
 20 21  1  6
 21 22  1  0
 21 23  1  0
 20 24  1  0
 24 25  1  1
 13 26  1  0
 26 27  1  1
 26 28  1  0
 28 29  1  0
 26 30  1  0
 30 31  1  0
 31 32  1  6
 31 33  1  0
 33 34  2  0
 33 35  1  0
 35 36  1  1
 35 37  1  0
 37 38  1  6
 38 39  1  0
 39 40  1  0
 40 41  1  0
 41 42  1  0
 42 43  1  0
 43 44  1  0
 44 45  2  0
 45 46  1  0
 46 47  1  0
 47 48  2  0
 48 49  1  0
 49 50  2  0
 50 51  1  0
 51 52  2  0
 46 53  2  0
 38 54  1  0
 54 55  2  0
 54 56  1  0
 56 57  1  0
 57 58  1  6
 57  3  1  0
 24 15  1  0
 57 37  1  0
 53 43  1  0
 52 47  1  0
M  END
>  <zinc_id>  (53) 
ZINC000009574770

>  <smiles>  (53) 
CC[C@H]1OC(=O)[C@H](C)C(=O)[C@H](C)[C@@H](O[C@@H]2O[C@H](C)C[C@H](N(C)C)[C@H]2O)[C@](C)(OC)C[C@@H](C)C(=O)[C@H](C)[C@H]2N(CCCCn3cnc(-c4cccnc4)c3)C(=O)O[C@]12C

$$$$

     RDKit          3D

 23 22  0  0  0  0  0  0  0  0999 V2000
    5.8381   -0.3518    4.9151 C   0  0  0  0  0  0  0  0  0  0  0  0
    5.3062    0.5968    3.8477 C   0  0  0  0  0  0  0  0  0  0  0  0
    5.1895   -0.2326    2.5749 C   0  0  0  0  0  0  0  0  0  0  0  0
    5.6724    0.6249    1.4411 C   0  0  0  0  0  0  0  0  0  0  0  0
    6.0431   -0.1966    0.2180 C   0  0  0  0  0  0  0  0  0  0  0  0
    5.2758    0.3745   -0.9433 C   0  0  0  0  0  0  0  0  0  0  0  0
    3.9485   -0.3636   -1.0631 C   0  0  0  0  0  0  0  0  0  0  0  0
    3.1263    0.4081   -2.0877 C   0  0  0  0  0  0  0  0  0  0  0  0
    1.6475    0.3064   -1.8049 C   0  0  0  0  0  0  0  0  0  0  0  0
    1.0896   -0.7907   -2.6650 C   0  0  0  0  0  0  0  0  0  0  0  0
   -0.3706   -0.7307   -2.5976 N   0  0  0  0  0  0  0  0  0  0  0  0
   -0.8268   -1.2417   -3.8931 C   0  0  0  0  0  0  0  0  0  0  0  0
   -0.7859   -1.7028   -1.6358 C   0  0  0  0  0  0  0  0  0  0  0  0
   -0.8650    0.5732   -2.4727 C   0  0  0  0  0  0  0  0  0  0  0  0
   -1.3328    1.1259   -1.2274 C   0  0  0  0  0  0  0  0  0  0  0  0
   -1.2792    0.3446    0.0211 C   0  0  0  0  0  0  0  0  0  0  0  0
   -2.6504    0.3694    0.6864 C   0  0  0  0  0  0  0  0  0  0  0  0
   -3.6995    0.8116   -0.3256 C   0  0  0  0  0  0  0  0  0  0  0  0
   -4.7146   -0.3164   -0.4615 C   0  0  0  0  0  0  0  0  0  0  0  0
   -5.4439   -0.5351    0.8386 C   0  0  0  0  0  0  0  0  0  0  0  0
   -6.6045    0.4094    1.0114 C   0  0  0  0  0  0  0  0  0  0  0  0
   -7.4499   -0.1211    2.1526 C   0  0  0  0  0  0  0  0  0  0  0  0
   -7.1137    0.5127    3.4710 C   0  0  0  0  0  0  0  0  0  0  0  0
  1  2  1  0
  2  3  1  0
  3  4  1  0
  4  5  1  0
  5  6  1  0
  6  7  1  0
  7  8  1  0
  8  9  1  0
  9 10  1  0
 10 11  1  0
 11 12  1  0
 11 13  1  0
 11 14  1  0
 14 15  1  0
 15 16  1  0
 16 17  1  0
 17 18  1  0
 18 19  1  0
 19 20  1  0
 20 21  1  0
 21 22  1  0
 22 23  1  0
M  CHG  1  11   1
M  END
>  <zinc_id>  (54) 
ZINC000014881137

>  <smiles>  (54) 
CCCCCCCCCC[N+](C)(C)CCCCCCCCCC

$$$$

     RDKit          3D

 68 71  0  0  0  0  0  0  0  0999 V2000
    6.2649   -0.8110   -2.2907 C   0  0  0  0  0  0  0  0  0  0  0  0
    6.1295   -0.0168   -1.4029 O   0  0  0  0  0  0  0  0  0  0  0  0
    7.0428   -0.4716   -0.2845 C   0  0  2  0  0  0  0  0  0  0  0  0
    6.4886    0.3518    0.9816 C   0  0  0  0  0  0  0  0  0  0  0  0
    5.5222    1.5947    0.7116 C   0  0  2  0  0  0  0  0  0  0  0  0
    4.3469    0.7750   -0.0906 C   0  0  0  0  0  0  0  0  0  0  0  0
    3.2208    1.9091    0.1789 C   0  0  1  0  0  0  0  0  0  0  0  0
    3.3416    2.4688   -1.3323 C   0  0  0  0  0  0  0  0  0  0  0  0
    1.8721    0.9203   -0.1824 C   0  0  2  0  0  0  0  0  0  0  0  0
    0.9592    1.8857    0.7759 C   0  0  0  0  0  0  0  0  0  0  0  0
    0.9120    3.2282    0.0977 C   0  0  0  0  0  0  0  0  0  0  0  0
    1.2796    4.0658    0.9272 O   0  0  0  0  0  0  0  0  0  0  0  0
   -0.6070    3.4275   -0.4182 C   0  0  2  0  0  0  0  0  0  0  0  0
   -0.1967    3.2547   -1.9969 C   0  0  0  0  0  0  0  0  0  0  0  0
   -0.4988    5.0375   -0.5176 C   0  0  0  0  0  0  0  0  0  0  0  0
   -1.4845    5.5549    0.2196 C   0  0  0  0  0  0  0  0  0  0  0  0
   -1.1622    6.7285    1.1015 C   0  0  0  0  0  0  0  0  0  0  0  0
   -2.8774    5.8298   -0.5473 C   0  0  1  0  0  0  0  0  0  0  0  0
   -2.8688    4.4962   -1.2579 O   0  0  0  0  0  0  0  0  0  0  0  0
   -3.7665    5.1526    0.7763 C   0  0  1  0  0  0  0  0  0  0  0  0
   -4.3769    6.4618    1.2130 O   0  0  0  0  0  0  0  0  0  0  0  0
   -4.2717    7.4071    0.2698 C   0  0  0  0  0  0  0  0  0  0  0  0
   -5.0363    4.7633   -0.1435 C   0  0  0  0  0  0  0  0  0  0  0  0
   -5.4126    5.5076   -0.9508 O   0  0  0  0  0  0  0  0  0  0  0  0
   -4.9805    3.1760   -0.3692 C   0  0  2  0  0  0  0  0  0  0  0  0
   -5.6208    3.1997   -1.8771 C   0  0  0  0  0  0  0  0  0  0  0  0
   -6.4512    2.9451    0.3173 C   0  0  0  0  0  0  0  0  0  0  0  0
   -6.9039    1.5514   -0.4182 C   0  0  2  0  0  0  0  0  0  0  0  0
   -8.4950    1.8913   -0.2319 C   0  0  0  0  0  0  0  0  0  0  0  0
   -6.8296    0.7242    0.9523 C   0  0  0  0  0  0  0  0  0  0  0  0
   -7.6731   -0.2309    1.1579 C   0  0  0  0  0  0  0  0  0  0  0  0
   -7.0349   -1.5655    1.1461 C   0  0  0  0  0  0  0  0  0  0  0  0
   -6.9417   -1.9556   -0.0996 C   0  0  0  0  0  0  0  0  0  0  0  0
   -5.8149   -2.7338   -0.5126 C   0  0  0  0  0  0  0  0  0  0  0  0
   -4.6586   -2.8751    0.1467 C   0  0  0  0  0  0  0  0  0  0  0  0
   -3.4488   -2.1693   -0.4194 C   0  0  0  0  0  0  0  0  0  0  0  0
   -4.4627   -4.4947    0.2726 C   0  0  1  0  0  0  0  0  0  0  0  0
   -4.1905   -4.6353   -1.2210 O   0  0  0  0  0  0  0  0  0  0  0  0
   -5.3678   -5.0957   -1.7759 C   0  0  0  0  0  0  0  0  0  0  0  0
   -2.8950   -4.3942    0.7810 C   0  0  0  0  0  0  0  0  0  0  0  0
   -2.0400   -4.4542   -0.6239 C   0  0  2  0  0  0  0  0  0  0  0  0
   -2.0379   -6.1056   -0.6058 C   0  0  0  0  0  0  0  0  0  0  0  0
   -0.6872   -6.6012   -0.6145 C   0  0  0  0  0  0  0  0  0  0  0  0
    0.2823   -5.7821   -1.6360 C   0  0  1  0  0  0  0  0  0  0  0  0
   -0.9082   -5.4747   -2.7178 C   0  0  0  0  0  0  0  0  0  0  0  0
    0.2744   -4.3571   -0.8069 C   0  0  1  0  0  0  0  0  0  0  0  0
    0.2139   -3.5844   -1.9012 O   0  0  0  0  0  0  0  0  0  0  0  0
   -0.7174   -4.3905    0.1035 O   0  0  0  0  0  0  0  0  0  0  0  0
    1.5734   -4.5859   -0.1522 C   0  0  0  0  0  0  0  0  0  0  0  0
    2.3540   -5.5716   -0.3692 O   0  0  0  0  0  0  0  0  0  0  0  0
    1.9251   -3.9439    1.1268 C   0  0  0  0  0  0  0  0  0  0  0  0
    2.8109   -4.4225    1.9017 O   0  0  0  0  0  0  0  0  0  0  0  0
    1.1727   -2.7766    1.4479 N   0  0  0  0  0  0  0  0  0  0  0  0
    1.5071   -2.0288    2.6123 C   0  0  0  0  0  0  0  0  0  0  0  0
    0.1920   -1.5656    3.2105 C   0  0  0  0  0  0  0  0  0  0  0  0
   -0.7493   -1.4359    2.0225 C   0  0  0  0  0  0  0  0  0  0  0  0
   -0.0870   -0.8832    0.8720 C   0  0  0  0  0  0  0  0  0  0  0  0
    0.9054   -1.9522    0.1194 C   0  0  1  0  0  0  0  0  0  0  0  0
    2.3153   -1.1818    0.2798 C   0  0  0  0  0  0  0  0  0  0  0  0
    3.2563   -2.0256    0.1581 O   0  0  0  0  0  0  0  0  0  0  0  0
    2.2889   -0.0193    0.9564 O   0  0  0  0  0  0  0  0  0  0  0  0
    6.2728    2.1619   -0.6310 C   0  0  0  0  0  0  0  0  0  0  0  0
    7.6609    2.0017   -0.1425 C   0  0  0  0  0  0  0  0  0  0  0  0
    8.2867    0.6389   -0.7840 C   0  0  1  0  0  0  0  0  0  0  0  0
    9.0721    0.3299    0.4676 O   0  0  0  0  0  0  0  0  0  0  0  0
    9.9383    1.3621    0.6856 C   0  0  0  0  0  0  0  0  0  0  0  0
   10.3655    2.1337   -0.5108 C   0  0  0  0  0  0  0  0  0  0  0  0
   11.5069    1.6553   -1.1311 O   0  0  0  0  0  0  0  0  0  0  0  0
  1  2  1  0
  3  2  1  6
  3  4  1  0
  4  5  1  0
  5  6  1  6
  7  6  1  6
  7  8  1  0
  7  9  1  0
  9 10  1  1
 10 11  1  0
 11 12  2  0
 11 13  1  0
 13 14  1  6
 13 15  1  0
 15 16  2  0
 16 17  1  0
 16 18  1  0
 18 19  1  6
 18 20  1  0
 20 21  1  1
 21 22  1  0
 20 23  1  0
 23 24  2  0
 23 25  1  0
 25 26  1  6
 25 27  1  0
 27 28  1  0
 28 29  1  1
 28 30  1  0
 30 31  2  0
 31 32  1  0
 32 33  2  0
 33 34  1  0
 34 35  2  0
 35 36  1  0
 35 37  1  0
 37 38  1  6
 38 39  1  0
 37 40  1  0
 41 40  1  1
 41 42  1  0
 42 43  1  0
 43 44  1  0
 44 45  1  6
 44 46  1  0
 46 47  1  6
 46 48  1  0
 46 49  1  0
 49 50  2  0
 49 51  1  0
 51 52  2  0
 51 53  1  0
 53 54  1  0
 54 55  1  0
 55 56  1  0
 56 57  1  0
 58 57  1  1
 58 59  1  0
 59 60  2  0
 59 61  1  0
  5 62  1  0
 62 63  1  0
 63 64  1  0
 64 65  1  1
 65 66  1  0
 66 67  1  0
 67 68  1  0
 64  3  1  0
 61  9  1  0
 48 41  1  0
 58 53  1  0
M  END
>  <zinc_id>  (55) 
ZINC000169677008

>  <smiles>  (55) 
CO[C@H]1C[C@@H]2CC[C@@H](C)[C@@](O)(O2)C(=O)C(=O)N2CCCC[C@H]2C(=O)O[C@H]([C@H](C)C[C@@H]2CC[C@@H](OCCO)[C@H](OC)C2)CC(=O)[C@H](C)/C=C(\C)[C@@H](O)[C@@H](OC)C(=O)[C@H](C)C[C@H](C)/C=C/C=C/C=C/1C

$$$$

     RDKit          3D

 32 36  0  0  0  0  0  0  0  0999 V2000
   -3.4017    3.5343   -0.4816 C   0  0  0  0  0  0  0  0  0  0  0  0
   -2.4100    3.7178   -0.0946 C   0  0  0  0  0  0  0  0  0  0  0  0
   -2.3525    4.3437    0.9648 O   0  0  0  0  0  0  0  0  0  0  0  0
   -1.1852    3.0340   -0.6510 C   0  0  1  0  0  0  0  0  0  0  0  0
   -1.3197    3.0482   -2.0194 O   0  0  0  0  0  0  0  0  0  0  0  0
   -0.0647    3.9891   -0.2050 C   0  0  0  0  0  0  0  0  0  0  0  0
    0.6337    3.2591    0.9519 C   0  0  0  0  0  0  0  0  0  0  0  0
    0.7216    1.9106    0.0452 C   0  0  1  0  0  0  0  0  0  0  0  0
    0.7380    0.7909    1.3504 C   0  0  2  0  0  0  0  0  0  0  0  0
    2.2504    1.1684    1.8566 C   0  0  0  0  0  0  0  0  0  0  0  0
    3.0657    1.5829    0.6974 C   0  0  0  0  0  0  0  0  0  0  0  0
    3.4778    0.2615    0.1183 C   0  0  0  0  0  0  0  0  0  0  0  0
    4.6233   -0.3300    0.4674 C   0  0  0  0  0  0  0  0  0  0  0  0
    4.9607   -1.4630   -0.4067 C   0  0  0  0  0  0  0  0  0  0  0  0
    6.1396   -1.8582   -0.4916 O   0  0  0  0  0  0  0  0  0  0  0  0
    3.8969   -2.4507   -0.6728 C   0  0  0  0  0  0  0  0  0  0  0  0
    2.5399   -1.8403   -0.8451 C   0  0  0  0  0  0  0  0  0  0  0  0
    2.3290   -0.6559    0.0453 C   0  0  0  0  0  0  0  0  0  0  0  0
    1.0964   -0.3860    0.3156 C   0  0  0  0  0  0  0  0  0  0  0  0
    0.1631   -0.2187   -1.0200 C   0  0  1  0  0  0  0  0  0  0  0  0
   -0.4394   -1.7259   -0.9445 C   0  0  0  0  0  0  0  0  0  0  0  0
   -1.3933   -1.9729   -1.9307 C   0  0  0  0  0  0  0  0  0  0  0  0
   -2.4021   -2.9176   -1.7541 C   0  0  0  0  0  0  0  0  0  0  0  0
   -2.6755   -3.2271   -0.4265 C   0  0  0  0  0  0  0  0  0  0  0  0
   -4.0035   -3.4153    0.0587 N   0  0  0  0  0  0  0  0  0  0  0  0
   -4.7292   -2.2615    0.5687 C   0  0  0  0  0  0  0  0  0  0  0  0
   -4.6751   -4.6990   -0.1280 C   0  0  0  0  0  0  0  0  0  0  0  0
   -1.5506   -3.3215    0.3853 C   0  0  0  0  0  0  0  0  0  0  0  0
   -0.6507   -2.2620    0.2790 C   0  0  0  0  0  0  0  0  0  0  0  0
   -1.1366    0.4547   -0.2395 C   0  0  0  0  0  0  0  0  0  0  0  0
   -0.9051    1.8265    0.0421 C   0  0  2  0  0  0  0  0  0  0  0  0
   -1.3411    2.0839    1.4884 C   0  0  0  0  0  0  0  0  0  0  0  0
  1  2  1  0
  2  3  2  0
  4  2  1  1
  4  5  1  0
  4  6  1  0
  6  7  1  0
  8  7  1  1
  8  9  1  0
  9 10  1  1
 10 11  1  0
 11 12  1  0
 12 13  2  0
 13 14  1  0
 14 15  2  0
 14 16  1  0
 16 17  1  0
 17 18  1  0
 18 19  2  0
 19 20  1  0
 20 21  1  1
 21 22  2  0
 22 23  1  0
 23 24  2  0
 24 25  1  0
 25 26  1  0
 25 27  1  0
 24 28  1  0
 28 29  2  0
 20 30  1  0
 30 31  1  0
 31 32  1  1
 31  4  1  0
 31  8  1  0
 19  9  1  0
 29 21  1  0
 18 12  1  0
M  END
>  <zinc_id>  (56) 
ZINC000034089131

>  <smiles>  (56) 
CC(=O)[C@@]1(O)CC[C@H]2[C@@H]3CCC4=CC(=O)CCC4=C3[C@@H](c3ccc(N(C)C)cc3)C[C@@]21C

$$$$

     RDKit          3D

 22 23  0  0  0  0  0  0  0  0999 V2000
    4.2945   -0.0595   -2.1685 C   0  0  0  0  0  0  0  0  0  0  0  0
    3.9840   -0.1103   -0.5545 C   0  0  2  0  0  0  0  0  0  0  0  0
    3.7259    1.4399   -0.4769 N   0  0  0  0  0  0  0  0  0  0  0  0
    2.3585    1.6652   -0.8111 C   0  0  0  0  0  0  0  0  0  0  0  0
    1.4149    0.6513   -0.2863 C   0  0  0  0  0  0  0  0  0  0  0  0
    0.2476    1.0428    0.3640 C   0  0  0  0  0  0  0  0  0  0  0  0
   -0.6705    0.0734    0.7517 C   0  0  0  0  0  0  0  0  0  0  0  0
   -0.7244   -1.0738    0.0080 C   0  0  0  0  0  0  0  0  0  0  0  0
   -1.6896   -2.0607    0.1505 O   0  0  0  0  0  0  0  0  0  0  0  0
   -2.7941   -2.0000   -0.7300 C   0  0  0  0  0  0  0  0  0  0  0  0
   -3.6450   -0.8462   -0.3488 C   0  0  0  0  0  0  0  0  0  0  0  0
   -4.0117    0.0841   -1.3003 C   0  0  0  0  0  0  0  0  0  0  0  0
   -4.6196    1.2424   -0.8732 C   0  0  0  0  0  0  0  0  0  0  0  0
   -4.8358    1.4222    0.4806 C   0  0  0  0  0  0  0  0  0  0  0  0
   -4.4905    0.4943    1.4345 C   0  0  0  0  0  0  0  0  0  0  0  0
   -4.2053    0.9566    2.6867 F   0  0  0  0  0  0  0  0  0  0  0  0
   -3.8889   -0.6639    1.0068 C   0  0  0  0  0  0  0  0  0  0  0  0
    0.4441   -1.4647   -0.6344 C   0  0  0  0  0  0  0  0  0  0  0  0
    1.2340   -0.4544   -1.1125 C   0  0  0  0  0  0  0  0  0  0  0  0
    5.5426    0.0309   -0.1704 C   0  0  0  0  0  0  0  0  0  0  0  0
    6.1257   -1.2799   -0.2262 N   0  0  0  0  0  0  0  0  0  0  0  0
    6.2034    0.9105   -0.7453 O   0  0  0  0  0  0  0  0  0  0  0  0
  2  1  1  6
  2  3  1  0
  3  4  1  0
  4  5  1  0
  5  6  2  0
  6  7  1  0
  7  8  2  0
  8  9  1  0
  9 10  1  0
 10 11  1  0
 11 12  2  0
 12 13  1  0
 13 14  2  0
 14 15  1  0
 15 16  1  0
 15 17  2  0
  8 18  1  0
 18 19  2  0
  2 20  1  0
 20 21  1  0
 20 22  2  0
 19  5  1  0
 17 11  1  0
M  END
>  <zinc_id>  (57) 
ZINC000053084692

>  <smiles>  (57) 
C[C@H](NCc1ccc(OCc2cccc(F)c2)cc1)C(N)=O

$$$$

     RDKit          3D

 34 36  0  0  0  0  0  0  0  0999 V2000
   -8.1913    3.5431    0.5932 C   0  0  0  0  0  0  0  0  0  0  0  0
   -8.1363    2.9547    0.6293 C   0  0  0  0  0  0  0  0  0  0  0  0
   -7.2038    1.8806    0.1695 C   0  0  0  0  0  0  0  0  0  0  0  0
   -7.2502    1.3435   -1.0497 C   0  0  0  0  0  0  0  0  0  0  0  0
   -8.4508    1.2015   -1.9318 C   0  0  0  0  0  0  0  0  0  0  0  0
   -5.9926    0.5891   -1.3086 C   0  0  0  0  0  0  0  0  0  0  0  0
   -5.1901    0.7332   -0.1228 N   0  0  0  0  0  0  0  0  0  0  0  0
   -3.7635    0.6430   -0.0283 C   0  0  0  0  0  0  0  0  0  0  0  0
   -3.2365    0.4594    1.0987 O   0  0  0  0  0  0  0  0  0  0  0  0
   -2.9631    1.3445   -0.9867 N   0  0  0  0  0  0  0  0  0  0  0  0
   -1.5948    0.8523   -1.1337 C   0  0  0  0  0  0  0  0  0  0  0  0
   -1.6568   -0.6329   -1.4687 C   0  0  0  0  0  0  0  0  0  0  0  0
   -0.4998   -1.2975   -0.7929 C   0  0  0  0  0  0  0  0  0  0  0  0
   -0.6773   -2.1242    0.2998 C   0  0  0  0  0  0  0  0  0  0  0  0
    0.4191   -2.7428    0.8400 C   0  0  0  0  0  0  0  0  0  0  0  0
    1.5502   -2.8885    0.0769 C   0  0  0  0  0  0  0  0  0  0  0  0
    2.9916   -3.7238    0.6368 S   0  0  0  0  0  0  0  0  0  0  0  0
    2.8693   -4.0241    2.0915 O   0  0  0  0  0  0  0  0  0  0  0  0
    3.0735   -5.0262   -0.1253 O   0  0  0  0  0  0  0  0  0  0  0  0
    4.4132   -2.7705    0.3477 N   0  0  0  0  0  0  0  0  0  0  0  0
    4.2180   -1.3811    0.0504 C   0  0  0  0  0  0  0  0  0  0  0  0
    3.3509   -0.8078    0.7426 O   0  0  0  0  0  0  0  0  0  0  0  0
    5.1460   -0.6526   -0.7499 N   0  0  0  0  0  0  0  0  0  0  0  0
    5.1726    0.9086   -0.4495 C   0  0  1  0  0  0  0  0  0  0  0  0
    6.4261    0.7176    0.6240 C   0  0  0  0  0  0  0  0  0  0  0  0
    6.7250    2.0940    1.1063 C   0  0  0  0  0  0  0  0  0  0  0  0
    6.6226    3.1009   -0.1919 C   0  0  1  0  0  0  0  0  0  0  0  0
    8.0911    3.7657    0.1549 C   0  0  0  0  0  0  0  0  0  0  0  0
    7.3088    2.0064   -1.2150 C   0  0  0  0  0  0  0  0  0  0  0  0
    6.1916    1.1739   -1.7338 C   0  0  0  0  0  0  0  0  0  0  0  0
    1.5022   -2.5085   -1.2588 C   0  0  0  0  0  0  0  0  0  0  0  0
    0.6133   -1.5175   -1.5955 C   0  0  0  0  0  0  0  0  0  0  0  0
   -6.0571    1.3111    0.8562 C   0  0  0  0  0  0  0  0  0  0  0  0
   -5.8209    1.4747    2.0839 O   0  0  0  0  0  0  0  0  0  0  0  0
  1  2  1  0
  2  3  1  0
  3  4  2  0
  4  5  1  0
  4  6  1  0
  6  7  1  0
  7  8  1  0
  8  9  2  0
  8 10  1  0
 10 11  1  0
 11 12  1  0
 12 13  1  0
 13 14  2  0
 14 15  1  0
 15 16  2  0
 16 17  1  0
 17 18  2  0
 17 19  2  0
 17 20  1  0
 20 21  1  0
 21 22  2  0
 21 23  1  0
 24 23  1  6
 24 25  1  0
 25 26  1  0
 26 27  1  0
 27 28  1  1
 27 29  1  0
 29 30  1  0
 16 31  1  0
 31 32  2  0
  7 33  1  0
 33 34  2  0
 33  3  1  0
 32 13  1  0
 30 24  1  0
M  END
>  <zinc_id>  (58) 
ZINC000100070954

>  <smiles>  (58) 
CCC1=C(C)CN(C(=O)NCCc2ccc(S(=O)(=O)NC(=O)N[C@@H]3CC[C@H](C)CC3)cc2)C1=O

$$$$

     RDKit          3D

 52 60  0  0  0  0  0  0  0  0999 V2000
   -2.0371    5.2047    3.0895 C   0  0  0  0  0  0  0  0  0  0  0  0
   -2.2452    4.7140    1.8687 C   0  0  0  0  0  0  0  0  0  0  0  0
   -3.0539    3.5390    1.6368 C   0  0  0  0  0  0  0  0  0  0  0  0
   -3.0768    3.6938   -0.0039 C   0  0  2  0  0  0  0  0  0  0  0  0
   -2.7018    2.0957   -0.2207 C   0  0  0  0  0  0  0  0  0  0  0  0
   -3.9990    1.7218    0.4387 C   0  0  0  0  0  0  0  0  0  0  0  0
   -4.4011    0.3334    0.2643 C   0  0  1  0  0  0  0  0  0  0  0  0
   -5.0041    0.0419   -1.0284 C   0  0  0  0  0  0  0  0  0  0  0  0
   -6.0951   -1.1666   -0.7668 C   0  0  1  0  0  0  0  0  0  0  0  0
   -5.3935   -2.4316   -0.9900 O   0  0  0  0  0  0  0  0  0  0  0  0
   -4.1810   -2.7100   -0.1462 C   0  0  2  0  0  0  0  0  0  0  0  0
   -4.1907   -1.5544    0.8081 C   0  0  1  0  0  0  0  0  0  0  0  0
   -4.0080   -1.5466   -0.7915 O   0  0  0  0  0  0  0  0  0  0  0  0
   -3.2264   -2.9208   -0.9367 C   0  0  1  0  0  0  0  0  0  0  0  0
   -2.7904   -2.9868   -2.4218 C   0  0  0  0  0  0  0  0  0  0  0  0
   -1.4883   -3.5710   -1.7744 C   0  0  0  0  0  0  0  0  0  0  0  0
   -1.6951   -3.9468   -0.1773 C   0  0  1  0  0  0  0  0  0  0  0  0
   -0.0818   -4.0656    0.0953 C   0  0  0  0  0  0  0  0  0  0  0  0
    0.5804   -2.8605   -0.4101 C   0  0  0  0  0  0  0  0  0  0  0  0
    1.0723   -3.0543   -1.5256 O   0  0  0  0  0  0  0  0  0  0  0  0
    1.1082   -1.7215    0.4280 C   0  0  0  0  0  0  0  0  0  0  0  0
    2.6052   -1.5224   -0.1108 C   0  0  2  0  0  0  0  0  0  0  0  0
    3.2789   -1.6288    1.4280 C   0  0  1  0  0  0  0  0  0  0  0  0
    3.4808   -3.1084    1.3588 O   0  0  0  0  0  0  0  0  0  0  0  0
    2.9507   -3.6643    2.5079 C   0  0  0  0  0  0  0  0  0  0  0  0
    4.7884   -1.2142    0.7361 C   0  0  1  0  0  0  0  0  0  0  0  0
    4.6970   -2.2952   -0.4864 C   0  0  0  0  0  0  0  0  0  0  0  0
    6.1839   -2.9719   -0.6325 C   0  0  2  0  0  0  0  0  0  0  0  0
    5.9985   -3.9201    0.5419 O   0  0  0  0  0  0  0  0  0  0  0  0
    7.0123   -1.8289    0.2070 C   0  0  0  0  0  0  0  0  0  0  0  0
    7.1015   -2.1486    1.5553 N   0  0  0  0  0  0  0  0  0  0  0  0
    4.2849   -0.0936   -0.1119 O   0  0  0  0  0  0  0  0  0  0  0  0
    2.8520    0.1239    0.2528 C   0  0  1  0  0  0  0  0  0  0  0  0
    2.4468    0.5137   -1.2571 C   0  0  0  0  0  0  0  0  0  0  0  0
    2.2215    2.1129   -1.4412 C   0  0  1  0  0  0  0  0  0  0  0  0
    1.7600    2.5280   -0.0463 O   0  0  0  0  0  0  0  0  0  0  0  0
    0.9451    3.6645   -0.6845 C   0  0  1  0  0  0  0  0  0  0  0  0
    1.1115    4.7672    0.5276 C   0  0  0  0  0  0  0  0  0  0  0  0
   -0.1447    5.2326    1.0140 C   0  0  0  0  0  0  0  0  0  0  0  0
   -1.0528    3.8618    1.1621 C   0  0  2  0  0  0  0  0  0  0  0  0
   -1.6470    4.0957   -0.1940 O   0  0  0  0  0  0  0  0  0  0  0  0
    2.0905    4.3626   -1.5924 C   0  0  0  0  0  0  0  0  0  0  0  0
    3.6119    4.2054   -1.0900 C   0  0  1  0  0  0  0  0  0  0  0  0
    3.4410    4.3609    0.5337 C   0  0  0  0  0  0  0  0  0  0  0  0
    3.7151    2.5850   -1.0138 C   0  0  0  0  0  0  0  0  0  0  0  0
    4.5334    2.2820   -2.0221 C   0  0  0  0  0  0  0  0  0  0  0  0
   -1.7290   -2.5673    0.5222 O   0  0  0  0  0  0  0  0  0  0  0  0
   -1.8273   -1.9218   -0.8302 C   0  0  2  0  0  0  0  0  0  0  0  0
   -3.2915   -1.1624   -0.7356 C   0  0  2  0  0  0  0  0  0  0  0  0
   -3.1747   -0.3620    0.5088 O   0  0  0  0  0  0  0  0  0  0  0  0
   -5.8639   -1.2693    0.8974 C   0  0  1  0  0  0  0  0  0  0  0  0
   -5.4715    0.1751    1.0593 O   0  0  0  0  0  0  0  0  0  0  0  0
  1  2  2  0
  2  3  1  0
  4  3  1  1
  4  5  1  0
  5  6  1  0
  7  6  1  6
  7  8  1  0
  9  8  1  6
  9 10  1  0
 11 10  1  6
 11 12  1  0
 12 13  1  6
 14 13  1  6
 14 15  1  0
 15 16  1  0
 17 16  1  6
 17 18  1  0
 18 19  1  0
 19 20  2  0
 19 21  1  0
 22 21  1  1
 22 23  1  0
 23 24  1  6
 24 25  1  0
 23 26  1  0
 26 27  1  6
 28 27  1  1
 28 29  1  0
 28 30  1  0
 30 31  1  0
 26 32  1  0
 33 32  1  6
 33 34  1  0
 35 34  1  1
 35 36  1  0
 36 37  1  0
 37 38  1  1
 38 39  1  0
 40 39  1  6
 40 41  1  0
 37 42  1  0
 42 43  1  0
 43 44  1  1
 43 45  1  0
 45 46  2  0
 17 47  1  0
 48 47  1  1
 48 49  1  0
 49 50  1  1
 12 51  1  0
 51 52  1  1
 40  2  1  0
 41  4  1  0
 50  7  1  0
 52  7  1  0
 51  9  1  0
 49 11  1  0
 48 14  1  0
 33 22  1  0
 45 35  1  0
M  END
>  <zinc_id>  (59) 
ZINC000169621219

>  <smiles>  (59) 
C=C1C[C@@H]2CC[C@@]34C[C@H]5O[C@H]6[C@@H](O3)[C@H]3O[C@@H](CC[C@@H]3O[C@H]6[C@H]5O4)CC(=O)C[C@H]3[C@H](C[C@H]4O[C@@H](CC[C@@H]1O2)C[C@@H](C)C4=C)O[C@H](C[C@H](O)CN)[C@@H]3OC

$$$$

     RDKit          3D

 23 24  0  0  0  0  0  0  0  0999 V2000
    1.5529   -1.4793    0.7183 O   0  0  0  0  0  0  0  0  0  0  0  0
    1.2186   -0.4873    0.0238 C   0  0  0  0  0  0  0  0  0  0  0  0
   -0.2091   -0.1660   -0.0411 C   0  0  0  0  0  0  0  0  0  0  0  0
   -0.6551    0.8598   -0.8653 C   0  0  0  0  0  0  0  0  0  0  0  0
   -1.9702    1.2794   -0.8317 C   0  0  0  0  0  0  0  0  0  0  0  0
   -2.7825    0.7022    0.1366 C   0  0  0  0  0  0  0  0  0  0  0  0
   -4.1560    1.2592    0.2444 C   0  0  0  0  0  0  0  0  0  0  0  0
   -4.9867    0.4830    1.0121 F   0  0  0  0  0  0  0  0  0  0  0  0
   -4.6350    1.4360   -1.0420 F   0  0  0  0  0  0  0  0  0  0  0  0
   -4.0445    2.5037    0.8247 F   0  0  0  0  0  0  0  0  0  0  0  0
   -2.4428   -0.5551    0.6061 C   0  0  0  0  0  0  0  0  0  0  0  0
   -1.1687   -1.0596    0.3912 C   0  0  0  0  0  0  0  0  0  0  0  0
   -0.8187   -2.4112    0.6895 N   0  0  0  0  0  0  0  0  0  0  0  0
   -0.9871   -3.2581   -0.2231 O   0  0  0  0  0  0  0  0  0  0  0  0
   -0.6674   -2.8572    1.9822 O   0  0  0  0  0  0  0  0  0  0  0  0
    2.1827    0.2015   -0.8863 C   0  0  0  0  0  0  0  0  0  0  0  0
    2.6077    1.5150   -0.3046 C   0  0  0  0  0  0  0  0  0  0  0  0
    2.5252    2.4743   -1.0670 O   0  0  0  0  0  0  0  0  0  0  0  0
    3.4778    1.5102    0.8878 C   0  0  0  0  0  0  0  0  0  0  0  0
    4.6366    0.5682    0.7971 C   0  0  0  0  0  0  0  0  0  0  0  0
    4.3344   -0.7198    0.0982 C   0  0  0  0  0  0  0  0  0  0  0  0
    3.4345   -0.5875   -1.0612 C   0  0  0  0  0  0  0  0  0  0  0  0
    3.5536   -1.2114   -2.0896 O   0  0  0  0  0  0  0  0  0  0  0  0
  1  2  2  0
  2  3  1  0
  3  4  2  0
  4  5  1  0
  5  6  2  0
  6  7  1  0
  7  8  1  0
  7  9  1  0
  7 10  1  0
  6 11  1  0
 11 12  2  0
 12 13  1  0
 13 14  2  0
 13 15  1  0
  2 16  1  0
 16 17  1  0
 17 18  2  0
 17 19  1  0
 19 20  1  0
 20 21  1  0
 21 22  1  0
 22 23  2  0
 12  3  1  0
 22 16  1  0
M  CHG  2  13   1  15  -1
M  END
>  <zinc_id>  (60) 
ZINC000100014475

>  <smiles>  (60) 
O=C1CCCC(=O)C1C(=O)c1ccc(C(F)(F)F)cc1[N+](=O)[O-]

$$$$

     RDKit          3D

 24 27  0  0  0  0  0  0  0  0999 V2000
   -4.8879   -0.4647    1.9541 C   0  0  0  0  0  0  0  0  0  0  0  0
   -4.2743   -0.3199    1.1718 C   0  0  0  0  0  0  0  0  0  0  0  0
   -3.5490    0.0602   -0.0470 C   0  0  2  0  0  0  0  0  0  0  0  0
   -3.8697    1.3301   -0.4945 O   0  0  0  0  0  0  0  0  0  0  0  0
   -3.6147   -0.9912   -1.1228 C   0  0  0  0  0  0  0  0  0  0  0  0
   -2.2709   -0.9662   -1.8500 C   0  0  0  0  0  0  0  0  0  0  0  0
   -1.7999    0.5090   -1.3554 C   0  0  2  0  0  0  0  0  0  0  0  0
   -0.1226    0.3395   -1.5138 C   0  0  2  0  0  0  0  0  0  0  0  0
    0.0291   -1.2617   -1.5938 C   0  0  0  0  0  0  0  0  0  0  0  0
    1.5234   -1.3525   -1.6812 C   0  0  0  0  0  0  0  0  0  0  0  0
    2.2707   -0.6550   -0.6376 C   0  0  0  0  0  0  0  0  0  0  0  0
    3.5978   -0.7739   -0.6951 C   0  0  0  0  0  0  0  0  0  0  0  0
    4.4237   -0.2351    0.3667 C   0  0  0  0  0  0  0  0  0  0  0  0
    5.6920   -0.3925    0.4222 N   0  0  0  0  0  0  0  0  0  0  0  0
    6.4854    0.5421    1.0652 O   0  0  0  0  0  0  0  0  0  0  0  0
    3.7873    0.6594    1.3491 C   0  0  0  0  0  0  0  0  0  0  0  0
    2.2984    0.6610    1.3014 C   0  0  0  0  0  0  0  0  0  0  0  0
    1.8502    0.8374   -0.2527 C   0  0  2  0  0  0  0  0  0  0  0  0
    0.2890    0.3208    0.1105 C   0  0  1  0  0  0  0  0  0  0  0  0
   -0.3366    1.7780    0.3775 C   0  0  0  0  0  0  0  0  0  0  0  0
   -1.6248    1.2185    1.0022 C   0  0  0  0  0  0  0  0  0  0  0  0
   -2.0332    0.0719    0.1834 C   0  0  1  0  0  0  0  0  0  0  0  0
   -1.6511   -1.2838    0.4335 C   0  0  0  0  0  0  0  0  0  0  0  0
   -2.2121   -2.0762    1.5063 C   0  0  0  0  0  0  0  0  0  0  0  0
  1  2  3  0
  3  2  1  1
  3  4  1  0
  3  5  1  0
  5  6  1  0
  7  6  1  6
  7  8  1  0
  8  9  1  1
  9 10  1  0
 10 11  1  0
 11 12  2  0
 12 13  1  0
 13 14  2  3
 14 15  1  0
 13 16  1  0
 16 17  1  0
 18 17  1  1
 18 19  1  0
 19 20  1  1
 20 21  1  0
 21 22  1  0
 22 23  1  1
 23 24  1  0
 22  3  1  0
 22  7  1  0
 19  8  1  0
 18 11  1  0
M  END
>  <zinc_id>  (61) 
ZINC000256433952

>  <smiles>  (61) 
C#C[C@]1(O)CC[C@@H]2[C@@H]3CCC4=CC(=NO)CC[C@@H]4[C@H]3CC[C@]21CC

$$$$

     RDKit          3D

 20 23  0  0  0  0  0  0  0  0999 V2000
    0.4880    3.8767   -0.6677 C   0  0  0  0  0  0  0  0  0  0  0  0
    0.3115    3.0763    0.5413 N   0  0  0  0  0  0  0  0  0  0  0  0
   -0.9999    2.5082    0.5456 C   0  0  0  0  0  0  0  0  0  0  0  0
   -0.6720    1.1236   -0.2724 C   0  0  2  0  0  0  0  0  0  0  0  0
   -1.8095    0.2736    0.4977 C   0  0  0  0  0  0  0  0  0  0  0  0
   -2.9932    0.9383    0.3714 C   0  0  0  0  0  0  0  0  0  0  0  0
   -4.1157    0.2541    0.8293 C   0  0  0  0  0  0  0  0  0  0  0  0
   -4.0726   -1.1356    0.8166 C   0  0  0  0  0  0  0  0  0  0  0  0
   -2.9053   -1.8141    0.4843 C   0  0  0  0  0  0  0  0  0  0  0  0
   -1.7432   -1.0933    0.2366 C   0  0  0  0  0  0  0  0  0  0  0  0
   -0.6467   -1.9056   -0.0800 O   0  0  0  0  0  0  0  0  0  0  0  0
    0.6738   -1.4715   -0.2462 C   0  0  0  0  0  0  0  0  0  0  0  0
    1.4681   -2.4433   -0.8330 C   0  0  0  0  0  0  0  0  0  0  0  0
    2.8457   -2.2695   -0.8967 C   0  0  0  0  0  0  0  0  0  0  0  0
    3.4037   -1.2407   -0.1484 C   0  0  0  0  0  0  0  0  0  0  0  0
    5.1302   -0.9410   -0.1144 Cl  0  0  0  0  0  0  0  0  0  0  0  0
    2.5736   -0.3080    0.4622 C   0  0  0  0  0  0  0  0  0  0  0  0
    1.2778   -0.2336   -0.0420 C   0  0  0  0  0  0  0  0  0  0  0  0
    0.4682    0.7354    0.9677 C   0  0  1  0  0  0  0  0  0  0  0  0
    1.3174    2.0701    0.5362 C   0  0  0  0  0  0  0  0  0  0  0  0
  1  2  1  0
  2  3  1  0
  4  3  1  1
  4  5  1  0
  5  6  2  0
  6  7  1  0
  7  8  2  0
  8  9  1  0
  9 10  2  0
 10 11  1  0
 11 12  1  0
 12 13  2  0
 13 14  1  0
 14 15  2  0
 15 16  1  0
 15 17  1  0
 17 18  2  0
 19 18  1  6
 19 20  1  0
 20  2  1  0
 19  4  1  0
 10  5  1  0
 18 12  1  0
M  END
>  <zinc_id>  (62) 
ZINC000000002299

>  <smiles>  (62) 
CN1C[C@@H]2c3ccccc3Oc3ccc(Cl)cc3[C@H]2C1

$$$$

     RDKit          3D

 10 11  0  0  0  0  0  0  0  0999 V2000
   -1.8855    1.4149   -0.4638 N   0  0  0  0  0  0  0  0  0  0  0  0
   -2.6439    0.1630    0.1388 C   0  0  1  0  0  0  0  0  0  0  0  0
   -2.1287   -1.0048   -1.0177 C   0  0  0  0  0  0  0  0  0  0  0  0
   -1.3455   -0.9191    0.5138 C   0  0  1  0  0  0  0  0  0  0  0  0
   -0.0397   -0.1533   -0.0492 C   0  0  0  0  0  0  0  0  0  0  0  0
    0.4296    0.9245    0.5963 C   0  0  0  0  0  0  0  0  0  0  0  0
    1.7417    1.2971    0.4625 C   0  0  0  0  0  0  0  0  0  0  0  0
    2.6876    0.3630    0.0829 C   0  0  0  0  0  0  0  0  0  0  0  0
    2.2617   -0.9322   -0.0858 C   0  0  0  0  0  0  0  0  0  0  0  0
    0.9226   -1.1530   -0.1778 C   0  0  0  0  0  0  0  0  0  0  0  0
  2  1  1  6
  2  3  1  0
  3  4  1  0
  4  5  1  6
  5  6  2  0
  6  7  1  0
  7  8  2  0
  8  9  1  0
  9 10  2  0
  4  2  1  0
 10  5  1  0
M  END
>  <zinc_id>  (63) 
ZINC000000896666

>  <smiles>  (63) 
N[C@H]1C[C@H]1c1ccccc1

$$$$

     RDKit          3D

 23 23  0  0  0  0  0  0  0  0999 V2000
    5.2337   -0.9000    1.5993 C   0  0  0  0  0  0  0  0  0  0  0  0
    5.0413    0.2252    1.2458 C   0  0  0  0  0  0  0  0  0  0  0  0
    4.1964    1.0479    2.2135 C   0  0  0  0  0  0  0  0  0  0  0  0
    4.4273    0.2577   -0.1140 C   0  0  0  0  0  0  0  0  0  0  0  0
    5.0487   -0.4169   -0.9891 O   0  0  0  0  0  0  0  0  0  0  0  0
    3.0926    0.6496   -0.2826 O   0  0  0  0  0  0  0  0  0  0  0  0
    2.7832    0.5426   -1.8349 C   0  0  1  0  0  0  0  0  0  0  0  0
    2.7119   -1.1507   -1.7579 C   0  0  0  0  0  0  0  0  0  0  0  0
    1.2245    0.7117   -1.6298 O   0  0  0  0  0  0  0  0  0  0  0  0
    0.6764   -0.0548   -0.6456 C   0  0  0  0  0  0  0  0  0  0  0  0
    1.3276   -0.2946    0.3793 O   0  0  0  0  0  0  0  0  0  0  0  0
   -0.7486   -0.0645   -0.5907 N   0  0  0  0  0  0  0  0  0  0  0  0
   -1.5210   -0.3529    0.5749 C   0  0  0  0  0  0  0  0  0  0  0  0
   -2.9349    0.0937    0.2082 C   0  0  0  0  0  0  0  0  0  0  0  0
   -3.5065   -0.7470   -0.8945 C   0  0  0  0  0  0  0  0  0  0  0  0
   -3.2989   -2.1976   -0.7232 C   0  0  0  0  0  0  0  0  0  0  0  0
   -3.6248   -2.7500    0.3631 O   0  0  0  0  0  0  0  0  0  0  0  0
   -3.2606   -2.9789   -1.8826 O   0  0  0  0  0  0  0  0  0  0  0  0
   -3.8345    0.2214    1.4093 C   0  0  0  0  0  0  0  0  0  0  0  0
   -4.5385    1.5755    1.3943 C   0  0  0  0  0  0  0  0  0  0  0  0
   -3.4928    2.6621    1.6027 C   0  0  0  0  0  0  0  0  0  0  0  0
   -2.2734    2.4308    0.7320 C   0  0  0  0  0  0  0  0  0  0  0  0
   -2.7292    1.4896   -0.3774 C   0  0  0  0  0  0  0  0  0  0  0  0
  1  2  1  0
  2  3  1  0
  2  4  1  0
  4  5  2  0
  4  6  1  0
  7  6  1  1
  7  8  1  0
  7  9  1  0
  9 10  1  0
 10 11  2  0
 10 12  1  0
 12 13  1  0
 13 14  1  0
 14 15  1  0
 15 16  1  0
 16 17  2  0
 16 18  1  0
 14 19  1  0
 19 20  1  0
 20 21  1  0
 21 22  1  0
 22 23  1  0
 23 14  1  0
M  END
>  <zinc_id>  (64) 
ZINC000001554010

>  <smiles>  (64) 
CC(C)C(=O)O[C@@H](C)OC(=O)NCC1(CC(=O)O)CCCCC1

$$$$

     RDKit          3D

 12 12  0  0  0  0  0  0  0  0999 V2000
    1.9151   -2.1672   -0.6413 Cl  0  0  0  0  0  0  0  0  0  0  0  0
    0.9879   -0.6033   -1.0763 C   0  0  1  0  0  0  0  0  0  0  0  0
   -0.3705   -1.1081   -0.3483 C   0  0  2  0  0  0  0  0  0  0  0  0
   -0.8319   -2.3136   -1.6724 Cl  0  0  0  0  0  0  0  0  0  0  0  0
   -1.3318    0.0574   -0.9481 C   0  0  1  0  0  0  0  0  0  0  0  0
   -2.6166   -0.2498    0.3626 Cl  0  0  0  0  0  0  0  0  0  0  0  0
   -0.5729    1.3813   -0.3551 C   0  0  1  0  0  0  0  0  0  0  0  0
   -1.8916    2.1618    0.7186 Cl  0  0  0  0  0  0  0  0  0  0  0  0
    0.2002    0.7099    0.9067 C   0  0  2  0  0  0  0  0  0  0  0  0
    0.6530    2.3253    1.6786 Cl  0  0  0  0  0  0  0  0  0  0  0  0
    1.5586    0.4599    0.0399 C   0  0  1  0  0  0  0  0  0  0  0  0
    2.3005   -0.6537    1.3352 Cl  0  0  0  0  0  0  0  0  0  0  0  0
  2  1  1  1
  2  3  1  0
  3  4  1  6
  3  5  1  0
  5  6  1  1
  5  7  1  0
  7  8  1  1
  7  9  1  0
  9 10  1  1
  9 11  1  0
 11 12  1  1
 11  2  1  0
M  END
>  <zinc_id>  (65) 
ZINC000245204924

>  <smiles>  (65) 
Cl[C@H]1[C@H](Cl)[C@@H](Cl)[C@@H](Cl)[C@H](Cl)[C@H]1Cl

$$$$

     RDKit          3D

 32 32  0  0  0  0  0  0  0  0999 V2000
   -2.1499    6.0145    2.6174 C   0  0  0  0  0  0  0  0  0  0  0  0
   -2.3929    5.9470    1.3210 O   0  0  0  0  0  0  0  0  0  0  0  0
   -2.6554    4.6552    0.8889 C   0  0  0  0  0  0  0  0  0  0  0  0
   -1.5085    3.7420    1.0769 C   0  0  0  0  0  0  0  0  0  0  0  0
   -1.2162    3.3096    2.2199 O   0  0  0  0  0  0  0  0  0  0  0  0
   -0.6542    3.3138    0.0098 N   0  0  0  0  0  0  0  0  0  0  0  0
   -0.2920    1.9277   -0.0707 C   0  0  0  0  0  0  0  0  0  0  0  0
    0.9636    1.4938    0.3442 C   0  0  0  0  0  0  0  0  0  0  0  0
    2.5169    2.8689    0.5349 I   0  0  0  0  0  0  0  0  0  0  0  0
    1.2500    0.1431    0.3307 C   0  0  0  0  0  0  0  0  0  0  0  0
    2.5661   -0.3958    0.6204 C   0  0  0  0  0  0  0  0  0  0  0  0
    2.7042   -1.6519    0.6717 O   0  0  0  0  0  0  0  0  0  0  0  0
    3.7522    0.3392    0.7741 N   0  0  0  0  0  0  0  0  0  0  0  0
    5.0457   -0.3338    0.9249 C   0  0  0  0  0  0  0  0  0  0  0  0
    5.3708   -0.6339   -0.6975 C   0  0  1  0  0  0  0  0  0  0  0  0
    6.8335   -0.1454   -0.5574 O   0  0  0  0  0  0  0  0  0  0  0  0
    5.7910   -2.2293   -0.3808 C   0  0  0  0  0  0  0  0  0  0  0  0
    6.6839   -2.1677    0.6542 O   0  0  0  0  0  0  0  0  0  0  0  0
    0.2373   -0.7298   -0.0542 C   0  0  0  0  0  0  0  0  0  0  0  0
    0.7532   -2.7646   -0.3764 I   0  0  0  0  0  0  0  0  0  0  0  0
   -0.9038   -0.2952   -0.7073 C   0  0  0  0  0  0  0  0  0  0  0  0
   -1.5433   -1.1218   -1.7328 C   0  0  0  0  0  0  0  0  0  0  0  0
   -0.8813   -1.4165   -2.7540 O   0  0  0  0  0  0  0  0  0  0  0  0
   -2.6533   -1.9847   -1.4385 N   0  0  0  0  0  0  0  0  0  0  0  0
   -3.8313   -1.6320   -2.2361 C   0  0  0  0  0  0  0  0  0  0  0  0
   -2.8357   -2.3400   -0.0523 C   0  0  0  0  0  0  0  0  0  0  0  0
   -3.0936   -3.9994   -0.0734 C   0  0  1  0  0  0  0  0  0  0  0  0
   -3.7298   -3.9504    1.3362 O   0  0  0  0  0  0  0  0  0  0  0  0
   -4.5984   -3.8069   -0.7958 C   0  0  0  0  0  0  0  0  0  0  0  0
   -5.3298   -4.8701   -0.2515 O   0  0  0  0  0  0  0  0  0  0  0  0
   -1.1461    1.0609   -0.7306 C   0  0  0  0  0  0  0  0  0  0  0  0
   -3.0531    1.6537   -1.4159 I   0  0  0  0  0  0  0  0  0  0  0  0
  1  2  1  0
  2  3  1  0
  3  4  1  0
  4  5  2  0
  4  6  1  0
  6  7  1  0
  7  8  2  0
  8  9  1  0
  8 10  1  0
 10 11  1  0
 11 12  2  0
 11 13  1  0
 13 14  1  0
 15 14  1  1
 15 16  1  0
 15 17  1  0
 17 18  1  0
 10 19  2  0
 19 20  1  0
 19 21  1  0
 21 22  1  0
 22 23  2  0
 22 24  1  0
 24 25  1  0
 24 26  1  0
 27 26  1  1
 27 28  1  0
 27 29  1  0
 29 30  1  0
 21 31  2  0
 31 32  1  0
 31  7  1  0
M  END
>  <zinc_id>  (66) 
ZINC000003830960

>  <smiles>  (66) 
COCC(=O)Nc1c(I)c(C(=O)NC[C@@H](O)CO)c(I)c(C(=O)N(C)C[C@@H](O)CO)c1I

$$$$

     RDKit          3D

 32 36  0  0  0  0  0  0  0  0999 V2000
    6.0981    2.7759   -0.1325 C   0  0  0  0  0  0  0  0  0  0  0  0
    5.7324    1.6136    0.7055 C   0  0  0  0  0  0  0  0  0  0  0  0
    5.6509    1.6326    1.9481 O   0  0  0  0  0  0  0  0  0  0  0  0
    5.4813    0.3650    0.1277 O   0  0  0  0  0  0  0  0  0  0  0  0
    4.5046   -0.5271    0.5939 C   0  0  0  0  0  0  0  0  0  0  0  0
    3.1844    0.1177    0.3742 C   0  0  0  0  0  0  0  0  0  0  0  0
    3.0181    1.2406    0.8475 O   0  0  0  0  0  0  0  0  0  0  0  0
    2.0558   -0.5225   -0.3556 C   0  0  1  0  0  0  0  0  0  0  0  0
    2.2783   -0.6943   -1.7452 N   0  0  0  0  0  0  0  0  0  0  0  0
    2.5693   -1.9327   -2.0042 C   0  0  0  0  0  0  0  0  0  0  0  0
    3.0942   -2.4035   -3.3204 C   0  0  0  0  0  0  0  0  0  0  0  0
    1.6177   -2.6264   -1.2540 O   0  0  0  0  0  0  0  0  0  0  0  0
    2.0973   -2.1106    0.1562 C   0  0  2  0  0  0  0  0  0  0  0  0
    0.5274   -2.1262    0.7465 C   0  0  0  0  0  0  0  0  0  0  0  0
   -0.0734   -1.2252   -0.4782 C   0  0  1  0  0  0  0  0  0  0  0  0
   -1.4112   -0.7129    0.4550 C   0  0  2  0  0  0  0  0  0  0  0  0
   -2.2811   -1.9702   -0.0649 C   0  0  0  0  0  0  0  0  0  0  0  0
   -3.5759   -1.8064    0.6509 C   0  0  0  0  0  0  0  0  0  0  0  0
   -3.8383   -0.3385    0.7770 C   0  0  0  0  0  0  0  0  0  0  0  0
   -5.0496   -0.0278    1.2537 C   0  0  0  0  0  0  0  0  0  0  0  0
   -5.9186    0.9590    0.5900 C   0  0  0  0  0  0  0  0  0  0  0  0
   -7.0067    1.3550    1.0781 O   0  0  0  0  0  0  0  0  0  0  0  0
   -5.5619    1.1606   -0.8237 C   0  0  0  0  0  0  0  0  0  0  0  0
   -4.3834    0.6869   -1.2371 C   0  0  0  0  0  0  0  0  0  0  0  0
   -3.3461    0.6762   -0.1458 C   0  0  1  0  0  0  0  0  0  0  0  0
   -3.3522    2.0324    0.3831 C   0  0  0  0  0  0  0  0  0  0  0  0
   -1.9633    0.2383   -0.8290 C   0  0  1  0  0  0  0  0  0  0  0  0
   -1.1090    1.6905   -0.3783 C   0  0  1  0  0  0  0  0  0  0  0  0
   -1.0741    1.3758    1.1304 O   0  0  0  0  0  0  0  0  0  0  0  0
    0.4013    1.0818   -0.7139 C   0  0  0  0  0  0  0  0  0  0  0  0
    0.8076    0.0250    0.1044 C   0  0  2  0  0  0  0  0  0  0  0  0
    0.8262   -0.0028    1.5604 C   0  0  0  0  0  0  0  0  0  0  0  0
  1  2  1  0
  2  3  2  0
  2  4  1  0
  4  5  1  0
  5  6  1  0
  6  7  2  0
  8  6  1  1
  8  9  1  0
  9 10  2  0
 10 11  1  0
 10 12  1  0
 13 12  1  6
 13 14  1  0
 15 14  1  1
 15 16  1  0
 16 17  1  6
 17 18  1  0
 18 19  1  0
 19 20  2  0
 20 21  1  0
 21 22  2  0
 21 23  1  0
 23 24  2  0
 24 25  1  0
 25 26  1  1
 27 25  1  1
 27 28  1  0
 28 29  1  1
 28 30  1  0
 30 31  1  0
 31 32  1  1
 13  8  1  0
 31 15  1  0
 31  8  1  0
 27 16  1  0
 25 19  1  0
M  END
>  <zinc_id>  (67) 
ZINC000004212809

>  <smiles>  (67) 
CC(=O)OCC(=O)[C@@]12N=C(C)O[C@@H]1C[C@H]1[C@@H]3CCC4=CC(=O)C=C[C@]4(C)[C@H]3[C@@H](O)C[C@@]12C

$$$$

     RDKit          3D

  5  4  0  0  0  0  0  0  0  0999 V2000
   -1.7641   -0.5559   -0.5662 C   0  0  0  0  0  0  0  0  0  0  0  0
   -0.4631    0.0071   -0.0850 C   0  0  0  0  0  0  0  0  0  0  0  0
   -0.4049    1.2651    0.0724 O   0  0  0  0  0  0  0  0  0  0  0  0
    0.7650   -0.7100   -0.2773 N   0  0  0  0  0  0  0  0  0  0  0  0
    1.8671   -0.0063   -0.6519 O   0  0  0  0  0  0  0  0  0  0  0  0
  1  2  1  0
  2  3  2  0
  2  4  1  0
  4  5  1  0
M  END
>  <zinc_id>  (68) 
ZINC000004658603

>  <smiles>  (68) 
CC(=O)NO

$$$$

     RDKit          3D

 53 58  0  0  0  0  0  0  0  0999 V2000
   -5.0499   -1.5323    1.9451 C   0  0  0  0  0  0  0  0  0  0  0  0
   -4.3895   -0.2138    1.6517 C   0  0  0  0  0  0  0  0  0  0  0  0
   -3.7929    0.4462    2.8550 C   0  0  0  0  0  0  0  0  0  0  0  0
   -5.3687    0.6669    0.9395 C   0  0  0  0  0  0  0  0  0  0  0  0
   -5.2732    0.2484   -0.3830 C   0  0  0  0  0  0  0  0  0  0  0  0
   -6.2720    0.6808   -1.2423 C   0  0  0  0  0  0  0  0  0  0  0  0
   -6.8889    1.8892   -0.9417 C   0  0  0  0  0  0  0  0  0  0  0  0
   -6.6823    2.5073    0.2852 C   0  0  0  0  0  0  0  0  0  0  0  0
   -7.0929    3.8028    0.5408 C   0  0  0  0  0  0  0  0  0  0  0  0
   -6.4548    4.5655    1.5085 C   0  0  0  0  0  0  0  0  0  0  0  0
   -5.5639    3.9915    2.4043 C   0  0  0  0  0  0  0  0  0  0  0  0
   -5.5211    2.6025    2.4011 C   0  0  0  0  0  0  0  0  0  0  0  0
   -5.8221    1.9478    1.2188 C   0  0  0  0  0  0  0  0  0  0  0  0
   -4.1077   -0.5728   -0.5266 N   0  0  0  0  0  0  0  0  0  0  0  0
   -3.8283   -1.4252   -1.6792 C   0  0  0  0  0  0  0  0  0  0  0  0
   -5.1386   -1.9950   -2.1555 C   0  0  0  0  0  0  0  0  0  0  0  0
   -5.3695   -3.3645   -1.5617 C   0  0  0  0  0  0  0  0  0  0  0  0
   -6.7957   -3.8073   -1.7384 C   0  0  0  0  0  0  0  0  0  0  0  0
   -7.8500   -3.1641   -0.4628 S   0  0  0  0  0  0  0  0  0  0  0  0
   -9.2759   -3.4525   -0.8323 O   0  0  0  0  0  0  0  0  0  0  0  0
   -7.5617   -3.8173    0.8497 O   0  0  0  0  0  0  0  0  0  0  0  0
   -7.6969   -1.4884   -0.3762 O   0  0  0  0  0  0  0  0  0  0  0  0
   -3.4049   -0.4555    0.5622 C   0  0  0  0  0  0  0  0  0  0  0  0
   -1.9667   -0.5838    0.6017 C   0  0  0  0  0  0  0  0  0  0  0  0
   -1.1471    0.2321    1.2222 C   0  0  0  0  0  0  0  0  0  0  0  0
   -1.2190    1.6772    1.1805 C   0  0  0  0  0  0  0  0  0  0  0  0
   -0.2103    2.3130    0.5830 C   0  0  0  0  0  0  0  0  0  0  0  0
    0.1099    1.8276   -0.7658 C   0  0  0  0  0  0  0  0  0  0  0  0
    1.0974    0.9330   -0.8229 C   0  0  0  0  0  0  0  0  0  0  0  0
    2.3520    1.3484   -0.1849 C   0  0  0  0  0  0  0  0  0  0  0  0
    3.3794    0.5106   -0.0768 C   0  0  0  0  0  0  0  0  0  0  0  0
    4.7507    0.8685   -0.1849 N   0  0  0  0  0  0  0  0  0  0  0  0
    5.3265    2.0872    0.3766 C   0  0  0  0  0  0  0  0  0  0  0  0
    5.1468    3.2543   -0.5597 C   0  0  0  0  0  0  0  0  0  0  0  0
    6.4657    3.6049   -1.2276 C   0  0  0  0  0  0  0  0  0  0  0  0
    7.4902    4.0840   -0.2254 C   0  0  0  0  0  0  0  0  0  0  0  0
    8.5558    2.7866    0.3278 S   0  0  0  0  0  0  0  0  0  0  0  0
   10.0148    3.1390    0.1498 O   0  0  0  0  0  0  0  0  0  0  0  0
    8.2975    1.5679   -0.5272 O   0  0  0  0  0  0  0  0  0  0  0  0
    8.2106    2.3754    1.9131 O   0  0  0  0  0  0  0  0  0  0  0  0
    5.4966   -0.3104   -0.5061 C   0  0  0  0  0  0  0  0  0  0  0  0
    6.7555   -0.4792   -1.0363 C   0  0  0  0  0  0  0  0  0  0  0  0
    7.2797   -1.7647   -0.9897 C   0  0  0  0  0  0  0  0  0  0  0  0
    6.6284   -2.7834   -0.3073 C   0  0  0  0  0  0  0  0  0  0  0  0
    7.3416   -3.8407    0.2390 C   0  0  0  0  0  0  0  0  0  0  0  0
    6.7089   -4.6269    1.1925 C   0  0  0  0  0  0  0  0  0  0  0  0
    5.3315   -4.7343    1.0912 C   0  0  0  0  0  0  0  0  0  0  0  0
    4.6321   -3.6667    0.5536 C   0  0  0  0  0  0  0  0  0  0  0  0
    5.2497   -2.6919   -0.2154 C   0  0  0  0  0  0  0  0  0  0  0  0
    4.6901   -1.4241   -0.3076 C   0  0  0  0  0  0  0  0  0  0  0  0
    3.2858   -0.9626   -0.0905 C   0  0  0  0  0  0  0  0  0  0  0  0
    2.3610   -1.4022   -1.1906 C   0  0  0  0  0  0  0  0  0  0  0  0
    2.7863   -1.3991    1.2652 C   0  0  0  0  0  0  0  0  0  0  0  0
  1  2  1  0
  2  3  1  0
  2  4  1  0
  4  5  2  0
  5  6  1  0
  6  7  2  0
  7  8  1  0
  8  9  2  0
  9 10  1  0
 10 11  2  0
 11 12  1  0
 12 13  2  0
  5 14  1  0
 14 15  1  0
 15 16  1  0
 16 17  1  0
 17 18  1  0
 18 19  1  0
 19 20  2  0
 19 21  2  0
 19 22  1  0
 14 23  2  0
 23 24  1  0
 24 25  2  0
 25 26  1  0
 26 27  2  0
 27 28  1  0
 28 29  2  0
 29 30  1  0
 30 31  2  0
 31 32  1  0
 32 33  1  0
 33 34  1  0
 34 35  1  0
 35 36  1  0
 36 37  1  0
 37 38  2  0
 37 39  2  0
 37 40  1  0
 32 41  1  0
 41 42  2  0
 42 43  1  0
 43 44  2  0
 44 45  1  0
 45 46  2  0
 46 47  1  0
 47 48  2  0
 48 49  1  0
 49 50  2  0
 50 51  1  0
 51 52  1  0
 51 53  1  0
 23  2  1  0
 51 31  1  0
 13  4  1  0
 50 41  1  0
 13  8  1  0
 49 44  1  0
M  CHG  1  14   1
M  END
>  <zinc_id>  (69) 
ZINC000008101127

>  <smiles>  (69) 
CC1(C)C(C=C/C=C\C=C/C=C2/N(CCCCS(=O)(=O)O)c3ccc4ccccc4c3C2(C)C)=[N+](CCCCS(=O)(=O)O)c2ccc3ccccc3c21

$$$$

     RDKit          3D

 26 27  0  0  0  0  0  0  0  0999 V2000
   -3.1242    5.5994    0.2064 C   0  0  0  0  0  0  0  0  0  0  0  0
   -3.0772    4.2595    0.2203 C   0  0  0  0  0  0  0  0  0  0  0  0
   -3.0389    3.1849    0.7978 C   0  0  0  0  0  0  0  0  0  0  0  0
   -3.4183    2.1657    1.7998 C   0  0  0  0  0  0  0  0  0  0  0  0
   -4.3003    1.0674    1.0061 C   0  0  2  0  0  0  0  0  0  0  0  0
   -3.7761   -0.1404    1.9456 C   0  0  0  0  0  0  0  0  0  0  0  0
   -3.0519    0.8770   -0.1453 C   0  0  2  0  0  0  0  0  0  0  0  0
   -3.9637    1.3273   -1.2661 O   0  0  0  0  0  0  0  0  0  0  0  0
   -3.3840   -0.6821   -0.3748 C   0  0  0  0  0  0  0  0  0  0  0  0
   -2.6015   -1.5926   -0.7070 C   0  0  0  0  0  0  0  0  0  0  0  0
   -1.3298   -2.1678    0.0262 C   0  0  1  0  0  0  0  0  0  0  0  0
   -1.1188   -3.5113   -0.9792 C   0  0  2  0  0  0  0  0  0  0  0  0
   -1.3689   -4.4820    0.1506 O   0  0  0  0  0  0  0  0  0  0  0  0
    0.4860   -3.4282   -0.6153 C   0  0  0  0  0  0  0  0  0  0  0  0
    0.3661   -2.3498   -1.8246 C   0  0  2  0  0  0  0  0  0  0  0  0
    1.8803   -1.7770   -1.7241 C   0  0  0  0  0  0  0  0  0  0  0  0
    2.0353   -1.4091   -0.3461 C   0  0  0  0  0  0  0  0  0  0  0  0
    3.1327   -1.0000    0.2338 C   0  0  0  0  0  0  0  0  0  0  0  0
    4.4463   -1.0169   -0.4399 C   0  0  0  0  0  0  0  0  0  0  0  0
    4.5654    0.3593   -1.0897 C   0  0  0  0  0  0  0  0  0  0  0  0
    4.1221    1.3331   -0.0631 C   0  0  0  0  0  0  0  0  0  0  0  0
    5.0987    1.7135    0.9620 C   0  0  0  0  0  0  0  0  0  0  0  0
    6.2635    1.2709    1.1079 O   0  0  0  0  0  0  0  0  0  0  0  0
    4.6771    2.8690    1.6417 O   0  0  0  0  0  0  0  0  0  0  0  0
    0.7849   -1.3037    0.3227 C   0  0  0  0  0  0  0  0  0  0  0  0
   -0.3046   -1.1662   -0.8459 C   0  0  2  0  0  0  0  0  0  0  0  0
  1  2  1  0
  2  3  3  0
  3  4  1  0
  5  4  1  1
  5  6  1  0
  5  7  1  0
  7  8  1  6
  7  9  1  0
  9 10  2  0
 11 10  1  6
 11 12  1  0
 12 13  1  1
 12 14  1  0
 15 14  1  1
 15 16  1  0
 16 17  1  0
 17 18  2  0
 18 19  1  0
 19 20  1  0
 20 21  1  0
 21 22  1  0
 22 23  2  0
 22 24  1  0
 17 25  1  0
 26 25  1  1
 26 11  1  0
 26 15  1  0
M  END
>  <zinc_id>  (70) 
ZINC000013587680

>  <smiles>  (70) 
CC#CC[C@H](C)[C@H](O)/C=C/[C@@H]1[C@H]2C/C(=C/CCCC(=O)O)C[C@H]2C[C@H]1O

$$$$

     RDKit          3D

 51 53  0  0  0  0  0  0  0  0999 V2000
    7.4638   -1.0455    2.5370 O   0  0  0  0  0  0  0  0  0  0  0  0
    7.7391   -0.2878    2.0857 C   0  0  0  0  0  0  0  0  0  0  0  0
    9.0597   -0.1174    1.6562 O   0  0  0  0  0  0  0  0  0  0  0  0
    6.8637    0.9093    1.8876 C   0  0  0  0  0  0  0  0  0  0  0  0
    6.6575    1.2132    0.4934 N   0  0  0  0  0  0  0  0  0  0  0  0
    5.3838    0.6375    0.0797 C   0  0  0  0  0  0  0  0  0  0  0  0
    5.0415    1.0329   -1.3473 C   0  0  0  0  0  0  0  0  0  0  0  0
    3.6429    1.2675   -1.4666 N   0  0  0  0  0  0  0  0  0  0  0  0
    2.9732    0.6139   -2.5309 C   0  0  0  0  0  0  0  0  0  0  0  0
    3.1272   -0.8704   -2.5412 C   0  0  0  0  0  0  0  0  0  0  0  0
    4.1741   -1.3655   -3.0601 O   0  0  0  0  0  0  0  0  0  0  0  0
    1.9560   -1.5765   -2.8453 O   0  0  0  0  0  0  0  0  0  0  0  0
    2.9214    1.3667   -0.2347 C   0  0  0  0  0  0  0  0  0  0  0  0
    2.4198   -0.1941    0.0362 C   0  0  2  0  0  0  0  0  0  0  0  0
    0.8203    0.2635    0.0402 C   0  0  0  0  0  0  0  0  0  0  0  0
    0.1910   -0.9149    0.4715 O   0  0  0  0  0  0  0  0  0  0  0  0
   -1.2487   -1.0205   -0.4305 P   0  0  2  0  0  0  0  0  0  0  0  0
   -2.0125   -2.2553   -0.0598 O   0  0  0  0  0  0  0  0  0  0  0  0
   -0.7824   -1.0222   -2.0669 O   0  0  0  0  0  0  0  0  0  0  0  0
   -2.0979    0.3994   -0.1047 O   0  0  0  0  0  0  0  0  0  0  0  0
   -3.2937    0.4304   -0.7939 C   0  0  0  0  0  0  0  0  0  0  0  0
   -4.0232   -0.8711   -0.8096 C   0  0  0  0  0  0  0  0  0  0  0  0
   -5.0298   -1.0201    0.3045 C   0  0  0  0  0  0  0  0  0  0  0  0
   -5.9885    0.1574    0.1618 C   0  0  0  0  0  0  0  0  0  0  0  0
   -7.1915   -0.0404    0.9964 C   0  0  0  0  0  0  0  0  0  0  0  0
   -8.3232    0.7122    0.7116 C   0  0  0  0  0  0  0  0  0  0  0  0
   -9.5353    0.2917    1.1979 C   0  0  0  0  0  0  0  0  0  0  0  0
   -9.6900   -0.9920    1.6750 C   0  0  0  0  0  0  0  0  0  0  0  0
   -8.5518   -1.6135    2.1669 C   0  0  0  0  0  0  0  0  0  0  0  0
   -7.2951   -1.1298    1.8318 C   0  0  0  0  0  0  0  0  0  0  0  0
   -6.3398    0.2224   -1.2787 C   0  0  0  0  0  0  0  0  0  0  0  0
   -6.6152   -0.9970   -1.8874 C   0  0  0  0  0  0  0  0  0  0  0  0
   -6.9091   -1.0077   -3.2225 C   0  0  0  0  0  0  0  0  0  0  0  0
   -7.2162    0.1680   -3.8583 C   0  0  0  0  0  0  0  0  0  0  0  0
   -6.6045    1.3133   -3.3718 C   0  0  0  0  0  0  0  0  0  0  0  0
   -6.2674    1.3569   -2.0360 C   0  0  0  0  0  0  0  0  0  0  0  0
   -5.1719    1.3648    0.6036 C   0  0  0  0  0  0  0  0  0  0  0  0
   -4.0988    1.6195   -0.4043 C   0  0  0  0  0  0  0  0  0  0  0  0
    2.5928   -0.0390    1.6095 N   0  0  0  0  0  0  0  0  0  0  0  0
    1.6714    0.8856    2.0950 C   0  0  0  0  0  0  0  0  0  0  0  0
    2.0771    2.2857    2.2145 C   0  0  0  0  0  0  0  0  0  0  0  0
    1.1390    3.1408    2.2624 O   0  0  0  0  0  0  0  0  0  0  0  0
    3.1526    2.5636    3.0642 O   0  0  0  0  0  0  0  0  0  0  0  0
    2.2100   -1.3912    2.0176 C   0  0  0  0  0  0  0  0  0  0  0  0
    3.4011   -2.2426    2.2296 C   0  0  0  0  0  0  0  0  0  0  0  0
    4.3805   -2.1572    1.4485 O   0  0  0  0  0  0  0  0  0  0  0  0
    3.3788   -3.1171    3.3045 O   0  0  0  0  0  0  0  0  0  0  0  0
    7.7489    0.7794   -0.3446 C   0  0  0  0  0  0  0  0  0  0  0  0
    7.3849   -0.3438   -1.2355 C   0  0  0  0  0  0  0  0  0  0  0  0
    6.8977   -1.3712   -0.7054 O   0  0  0  0  0  0  0  0  0  0  0  0
    7.8166   -0.3041   -2.5468 O   0  0  0  0  0  0  0  0  0  0  0  0
  1  2  2  0
  2  3  1  0
  2  4  1  0
  4  5  1  0
  5  6  1  0
  6  7  1  0
  7  8  1  0
  8  9  1  0
  9 10  1  0
 10 11  2  0
 10 12  1  0
  8 13  1  0
 14 13  1  6
 14 15  1  0
 15 16  1  0
 17 16  1  1
 17 18  2  0
 17 19  1  0
 17 20  1  0
 20 21  1  0
 21 22  1  0
 22 23  1  0
 23 24  1  0
 24 25  1  0
 25 26  2  0
 26 27  1  0
 27 28  2  0
 28 29  1  0
 29 30  2  0
 24 31  1  0
 31 32  2  0
 32 33  1  0
 33 34  2  0
 34 35  1  0
 35 36  2  0
 24 37  1  0
 37 38  1  0
 14 39  1  0
 39 40  1  0
 40 41  1  0
 41 42  2  0
 41 43  1  0
 39 44  1  0
 44 45  1  0
 45 46  2  0
 45 47  1  0
  5 48  1  0
 48 49  1  0
 49 50  2  0
 49 51  1  0
 38 21  1  0
 30 25  1  0
 36 31  1  0
M  END
>  <zinc_id>  (71) 
ZINC000028108825

>  <smiles>  (71) 
O=C(O)CN(CCN(CC(=O)O)C[C@H](CO[P@](=O)(O)OC1CCC(c2ccccc2)(c2ccccc2)CC1)N(CC(=O)O)CC(=O)O)CC(=O)O

$$$$

     RDKit          2D

 36 40  0  0  0  0  0  0  0  0999 V2000
   -4.0552    4.4944    0.0000 C   0  0  0  0  0  0  0  0  0  0  0  0
   -3.1161    3.3248    0.0000 C   0  0  0  0  0  0  0  0  0  0  0  0
   -3.6595    1.9267    0.0000 C   0  0  0  0  0  0  0  0  0  0  0  0
   -4.8693    2.8134    0.0000 C   0  0  0  0  0  0  0  0  0  0  0  0
   -2.1684    1.7637    0.0000 C   0  0  0  0  0  0  0  0  0  0  0  0
   -1.2292    0.5940    0.0000 C   0  0  0  0  0  0  0  0  0  0  0  0
    0.2108    1.0141    0.0000 O   0  0  0  0  0  0  0  0  0  0  0  0
    1.2945   -0.0230    0.0000 C   0  0  0  0  0  0  0  0  0  0  0  0
    0.9383   -1.4801    0.0000 O   0  0  0  0  0  0  0  0  0  0  0  0
    2.7345    0.3971    0.0000 C   0  0  0  0  0  0  0  0  0  0  0  0
    3.8183   -0.6400    0.0000 S   0  0  0  0  0  0  0  0  0  0  0  0
    5.2583   -0.2199    0.0000 C   0  0  0  0  0  0  0  0  0  0  0  0
    6.3420   -1.2570    0.0000 C   0  0  0  0  0  0  0  0  0  0  0  0
    7.7820   -0.8369    0.0000 C   0  0  0  0  0  0  0  0  0  0  0  0
    9.0217    0.0075    0.0000 C   0  0  0  0  0  0  0  0  0  0  0  0
    8.6017    1.4475    0.0000 C   0  0  0  0  0  0  0  0  0  0  0  0
    7.1024    1.4930    0.0000 C   0  0  0  0  0  0  0  0  0  0  0  0
    5.6145    1.2372    0.0000 C   0  0  0  0  0  0  0  0  0  0  0  0
    6.5958    0.0812    0.0000 N   0  0  0  0  0  0  0  0  0  0  0  0
    5.7992    0.0497    0.0000 C   0  0  0  0  0  0  0  0  0  0  0  0
   -1.3922   -0.8971    0.0000 C   0  0  0  0  0  0  0  0  0  0  0  0
   -0.0770   -1.6183    0.0000 C   0  0  0  0  0  0  0  0  0  0  0  0
   -2.5618   -1.8362    0.0000 C   0  0  0  0  0  0  0  0  0  0  0  0
   -2.2561   -3.3047    0.0000 C   0  0  0  0  0  0  0  0  0  0  0  0
   -0.8883   -3.9205    0.0000 O   0  0  0  0  0  0  0  0  0  0  0  0
   -3.5582   -4.0493    0.0000 C   0  0  0  0  0  0  0  0  0  0  0  0
   -4.6688   -3.0410    0.0000 C   0  0  0  0  0  0  0  0  0  0  0  0
   -4.0530   -1.6732    0.0000 C   0  0  0  0  0  0  0  0  0  0  0  0
   -4.3064   -0.1846    0.0000 C   0  0  0  0  0  0  0  0  0  0  0  0
   -3.2693    0.8991    0.0000 C   0  0  0  0  0  0  0  0  0  0  0  0
   -1.8123    0.5429    0.0000 C   0  0  0  0  0  0  0  0  0  0  0  0
   -0.7752    1.6267    0.0000 C   0  0  0  0  0  0  0  0  0  0  0  0
   -4.9921   -0.5036    0.0000 C   0  0  0  0  0  0  0  0  0  0  0  0
   -6.4321   -0.9236    0.0000 C   0  0  0  0  0  0  0  0  0  0  0  0
   -4.8291    0.9875    0.0000 C   0  0  0  0  0  0  0  0  0  0  0  0
   -6.1443    1.7087    0.0000 O   0  0  0  0  0  0  0  0  0  0  0  0
  1  2  2  0
  3  2  1  6
  3  4  1  0
  3  5  1  0
  5  6  1  0
  6  7  1  1
  7  8  1  0
  8  9  2  0
  8 10  1  0
 10 11  1  0
 12 11  1  1
 12 13  1  0
 14 13  1  6
 14 15  1  0
 15 16  1  0
 17 16  1  6
 17 18  1  0
 17 19  1  0
 19 20  1  0
  6 21  1  0
 21 22  1  6
 21 23  1  0
 23 24  1  6
 24 25  2  0
 24 26  1  0
 26 27  1  0
 28 27  1  6
 28 29  1  0
 29 30  1  0
 30 31  1  0
 31 32  1  1
 28 33  1  0
 33 34  1  1
 33 35  1  0
 35 36  1  6
 35  3  1  0
 18 12  1  0
 31 21  1  0
 19 14  1  0
 28 23  1  0
M  END
>  <zinc_id>  (72) 
ZINC000100013500

>  <smiles>  (72) 
C=C[C@]1(C)C[C@@H](OC(=O)CS[C@H]2C[C@@H]3CC[C@H](C2)N3C)[C@]2(C)[C@H](C)CC[C@]3(CCC(=O)[C@H]32)[C@@H](C)[C@@H]1O

$$$$

     RDKit          3D

 40 43  0  0  0  0  0  0  0  0999 V2000
   -3.8522   -2.7957   -1.5729 C   0  0  0  0  0  0  0  0  0  0  0  0
   -4.2109   -2.9071   -0.2763 C   0  0  0  0  0  0  0  0  0  0  0  0
   -4.7055   -4.1138    0.2018 C   0  0  0  0  0  0  0  0  0  0  0  0
   -5.2790   -4.9913   -0.7192 O   0  0  0  0  0  0  0  0  0  0  0  0
   -4.8888   -4.2528    1.5705 C   0  0  0  0  0  0  0  0  0  0  0  0
   -4.6183   -3.1826    2.4074 C   0  0  0  0  0  0  0  0  0  0  0  0
   -4.3181   -1.9419    1.9081 C   0  0  0  0  0  0  0  0  0  0  0  0
   -3.9995   -1.8170    0.5606 C   0  0  0  0  0  0  0  0  0  0  0  0
   -3.1878   -0.6694    0.1288 C   0  0  0  0  0  0  0  0  0  0  0  0
   -3.4267    0.5065    0.4547 O   0  0  0  0  0  0  0  0  0  0  0  0
   -2.3267   -0.8491   -0.9161 N   0  0  0  0  0  0  0  0  0  0  0  0
   -1.1335    0.1364   -1.2110 C   0  0  1  0  0  0  0  0  0  0  0  0
   -1.3925    1.1832    0.0453 C   0  0  0  0  0  0  0  0  0  0  0  0
   -1.2842    2.8328   -0.6452 S   0  0  0  0  0  0  0  0  0  0  0  0
   -2.5404    3.9567   -0.1055 C   0  0  0  0  0  0  0  0  0  0  0  0
   -2.7779    5.0787   -0.8918 C   0  0  0  0  0  0  0  0  0  0  0  0
   -3.6638    6.0679   -0.5081 C   0  0  0  0  0  0  0  0  0  0  0  0
   -4.5045    5.7910    0.5593 C   0  0  0  0  0  0  0  0  0  0  0  0
   -4.2316    4.6955    1.3691 C   0  0  0  0  0  0  0  0  0  0  0  0
   -3.0248    4.0474    1.1801 C   0  0  0  0  0  0  0  0  0  0  0  0
   -0.0235   -0.9103   -0.3361 C   0  0  2  0  0  0  0  0  0  0  0  0
   -0.7877   -0.8084    0.9869 O   0  0  0  0  0  0  0  0  0  0  0  0
    1.0087    0.3433    0.0528 C   0  0  0  0  0  0  0  0  0  0  0  0
    2.1792   -0.1509   -0.4401 N   0  0  0  0  0  0  0  0  0  0  0  0
    3.0376    0.2843   -1.3741 C   0  0  0  0  0  0  0  0  0  0  0  0
    3.0906   -0.7666   -2.6302 C   0  0  1  0  0  0  0  0  0  0  0  0
    4.7243   -0.8858   -2.5802 C   0  0  0  0  0  0  0  0  0  0  0  0
    4.9739   -1.6753   -3.8635 C   0  0  0  0  0  0  0  0  0  0  0  0
    3.8797   -2.7431   -3.8375 C   0  0  0  0  0  0  0  0  0  0  0  0
    3.7813   -3.1612   -2.4160 C   0  0  0  0  0  0  0  0  0  0  0  0
    2.7673   -2.1423   -1.6311 C   0  0  1  0  0  0  0  0  0  0  0  0
    3.9017   -1.7712   -0.5137 C   0  0  0  0  0  0  0  0  0  0  0  0
    2.9545   -1.0222    0.6508 C   0  0  1  0  0  0  0  0  0  0  0  0
    4.0888    0.1580    0.8815 C   0  0  0  0  0  0  0  0  0  0  0  0
    5.2471   -0.3526    1.0407 O   0  0  0  0  0  0  0  0  0  0  0  0
    3.7666    0.9981    2.0093 N   0  0  0  0  0  0  0  0  0  0  0  0
    4.8830    1.7985    2.5111 C   0  0  0  0  0  0  0  0  0  0  0  0
    4.5988    2.5525    3.7501 C   0  0  0  0  0  0  0  0  0  0  0  0
    5.9739    0.7817    2.8354 C   0  0  0  0  0  0  0  0  0  0  0  0
    5.3212    2.6981    1.3645 C   0  0  0  0  0  0  0  0  0  0  0  0
  1  2  1  0
  2  3  2  0
  3  4  1  0
  3  5  1  0
  5  6  2  0
  6  7  1  0
  7  8  2  0
  8  9  1  0
  9 10  2  0
  9 11  1  0
 12 11  1  1
 12 13  1  0
 13 14  1  0
 14 15  1  0
 15 16  2  0
 16 17  1  0
 17 18  2  0
 18 19  1  0
 19 20  2  0
 12 21  1  0
 21 22  1  1
 21 23  1  0
 23 24  1  0
 24 25  1  0
 26 25  1  1
 26 27  1  0
 27 28  1  0
 28 29  1  0
 29 30  1  0
 31 30  1  6
 31 32  1  0
 32 33  1  0
 33 34  1  1
 34 35  2  0
 34 36  1  0
 36 37  1  0
 37 38  1  0
 37 39  1  0
 37 40  1  0
  8  2  1  0
 20 15  1  0
 33 24  1  0
 31 26  1  0
M  END
>  <zinc_id>  (73) 
ZINC000003833846

>  <smiles>  (73) 
Cc1c(O)cccc1C(=O)N[C@@H](CSc1ccccc1)[C@H](O)CN1C[C@H]2CCCC[C@H]2C[C@H]1C(=O)NC(C)(C)C

$$$$

     RDKit          2D

 27 33  0  0  0  0  0  0  0  0999 V2000
   -2.4159   -1.6614    0.0000 C   0  0  0  0  0  0  0  0  0  0  0  0
   -1.7882   -0.2990    0.0000 C   0  0  0  0  0  0  0  0  0  0  0  0
   -1.1012   -1.6325    0.0000 C   0  0  0  0  0  0  0  0  0  0  0  0
    0.3971   -1.7042    0.0000 C   0  0  0  0  0  0  0  0  0  0  0  0
    1.2084   -0.4425    0.0000 C   0  0  0  0  0  0  0  0  0  0  0  0
    0.5214    0.8909    0.0000 C   0  0  0  0  0  0  0  0  0  0  0  0
    1.3326    2.1526    0.0000 C   0  0  0  0  0  0  0  0  0  0  0  0
    2.1439    3.4142    0.0000 C   0  0  0  0  0  0  0  0  0  0  0  0
    2.8309    2.0808    0.0000 C   0  0  0  0  0  0  0  0  0  0  0  0
    3.5179    0.7474    0.0000 C   0  0  0  0  0  0  0  0  0  0  0  0
    5.0162    0.6756    0.0000 C   0  0  0  0  0  0  0  0  0  0  0  0
    5.7032   -0.6578    0.0000 C   0  0  0  0  0  0  0  0  0  0  0  0
    7.2015   -0.7296    0.0000 O   0  0  0  0  0  0  0  0  0  0  0  0
    4.8919   -1.9195    0.0000 C   0  0  0  0  0  0  0  0  0  0  0  0
    3.3937   -1.8477    0.0000 C   0  0  0  0  0  0  0  0  0  0  0  0
    2.7067   -0.5143    0.0000 C   0  0  0  0  0  0  0  0  0  0  0  0
    1.8954   -1.7760    0.0000 C   0  0  0  0  0  0  0  0  0  0  0  0
   -0.9769    0.9626    0.0000 C   0  0  0  0  0  0  0  0  0  0  0  0
   -1.9261    2.1241    0.0000 C   0  0  0  0  0  0  0  0  0  0  0  0
   -3.0961    3.0628    0.0000 C   0  0  0  0  0  0  0  0  0  0  0  0
   -3.3241    1.5802    0.0000 C   0  0  0  0  0  0  0  0  0  0  0  0
   -3.2388    0.0826    0.0000 C   0  0  0  0  0  0  0  0  0  0  0  0
   -3.1536   -1.4149    0.0000 C   0  0  0  0  0  0  0  0  0  0  0  0
   -4.5515   -1.9588    0.0000 C   0  0  0  0  0  0  0  0  0  0  0  0
   -5.5007   -0.7973    0.0000 C   0  0  0  0  0  0  0  0  0  0  0  0
   -6.9983   -0.8826    0.0000 O   0  0  0  0  0  0  0  0  0  0  0  0
   -4.6894    0.4643    0.0000 O   0  0  0  0  0  0  0  0  0  0  0  0
  2  1  1  1
  2  3  1  0
  3  4  1  0
  5  4  1  1
  5  6  1  0
  6  7  1  6
  7  8  1  1
  9  8  1  1
  9 10  1  0
 10 11  2  0
 11 12  1  0
 12 13  2  0
 12 14  1  0
 14 15  1  0
 15 16  1  0
 16 17  1  1
  6 18  1  0
 18 19  1  1
 19 20  1  1
 21 20  1  1
 21 22  1  0
 22 23  1  6
 23 24  1  0
 24 25  1  0
 25 26  2  0
 25 27  1  0
 18  2  1  0
 21 19  1  0
 27 22  1  0
 22  2  1  0
 16  5  1  0
  9  7  1  0
 16 10  1  0
M  END
>  <zinc_id>  (74) 
ZINC000003927200

>  <smiles>  (74) 
C[C@]12CC[C@H]3[C@H]([C@@H]1[C@@H]1C[C@@H]1[C@@]21CCC(=O)O1)[C@H]1C[C@H]1C1=CC(=O)CC[C@@]13C

$$$$

     RDKit          3D

 35 35  0  0  0  0  0  0  0  0999 V2000
    9.1121    0.1584   -0.5693 C   0  0  0  0  0  0  0  0  0  0  0  0
    8.6374    0.3210   -0.4365 C   0  0  0  0  0  0  0  0  0  0  0  0
    7.8642    1.5282    0.0849 C   0  0  0  0  0  0  0  0  0  0  0  0
    6.4238    1.4953   -0.3683 C   0  0  0  0  0  0  0  0  0  0  0  0
    5.8920    0.1014   -0.1151 C   0  0  0  0  0  0  0  0  0  0  0  0
    5.1589    0.0138    1.1992 C   0  0  0  0  0  0  0  0  0  0  0  0
    3.9574   -0.8986    1.0549 C   0  0  0  0  0  0  0  0  0  0  0  0
    2.8171   -0.1052    0.4484 C   0  0  0  0  0  0  0  0  0  0  0  0
    2.6010   -0.6158   -0.9723 C   0  0  0  0  0  0  0  0  0  0  0  0
    1.6949    0.3578   -1.7102 C   0  0  0  0  0  0  0  0  0  0  0  0
    0.2674   -0.1340   -1.7857 C   0  0  0  0  0  0  0  0  0  0  0  0
    0.1381   -0.8181   -0.2629 C   0  0  1  0  0  0  0  0  0  0  0  0
   -1.4599   -0.3702   -0.0788 C   0  0  0  0  0  0  0  0  0  0  0  0
   -1.3938    1.1724   -0.6940 C   0  0  2  0  0  0  0  0  0  0  0  0
   -0.7577    1.7560    0.5954 O   0  0  0  0  0  0  0  0  0  0  0  0
   -1.8348    2.6252    0.8581 C   0  0  0  0  0  0  0  0  0  0  0  0
   -2.2208    3.1203    1.9551 O   0  0  0  0  0  0  0  0  0  0  0  0
   -2.8477    1.6120    0.1218 C   0  0  1  0  0  0  0  0  0  0  0  0
   -3.2657    2.7074   -1.0350 C   0  0  0  0  0  0  0  0  0  0  0  0
   -4.0021    3.7039   -0.1689 C   0  0  0  0  0  0  0  0  0  0  0  0
   -3.8919    5.1116   -0.6753 C   0  0  0  0  0  0  0  0  0  0  0  0
   -2.4433    5.5180   -0.8104 C   0  0  0  0  0  0  0  0  0  0  0  0
   -2.3666    6.9699   -0.4387 C   0  0  0  0  0  0  0  0  0  0  0  0
   -3.7234    7.6542   -0.4698 C   0  0  0  0  0  0  0  0  0  0  0  0
   -0.2297   -2.1914   -0.9095 O   0  0  0  0  0  0  0  0  0  0  0  0
   -0.9737   -3.0703   -0.1337 C   0  0  0  0  0  0  0  0  0  0  0  0
   -1.5918   -2.4813    0.8034 O   0  0  0  0  0  0  0  0  0  0  0  0
   -1.9756   -3.8738   -1.1628 C   0  0  2  0  0  0  0  0  0  0  0  0
   -2.9565   -4.4629    0.0596 C   0  0  0  0  0  0  0  0  0  0  0  0
   -4.3323   -4.0163   -0.3094 C   0  0  0  0  0  0  0  0  0  0  0  0
   -4.4446   -3.5665   -1.7446 C   0  0  0  0  0  0  0  0  0  0  0  0
   -4.9892   -3.0802    0.6593 C   0  0  0  0  0  0  0  0  0  0  0  0
   -1.0398   -5.1655   -1.1938 N   0  0  0  0  0  0  0  0  0  0  0  0
   -0.7861   -5.8174   -0.0060 C   0  0  0  0  0  0  0  0  0  0  0  0
   -1.0374   -5.2592    1.0974 O   0  0  0  0  0  0  0  0  0  0  0  0
  1  2  1  0
  2  3  1  0
  3  4  1  0
  4  5  1  0
  5  6  1  0
  6  7  1  0
  7  8  1  0
  8  9  1  0
  9 10  1  0
 10 11  1  0
 12 11  1  6
 12 13  1  0
 14 13  1  1
 14 15  1  0
 15 16  1  0
 16 17  2  0
 16 18  1  0
 18 19  1  6
 19 20  1  0
 20 21  1  0
 21 22  1  0
 22 23  1  0
 23 24  1  0
 12 25  1  0
 25 26  1  0
 26 27  2  0
 28 26  1  1
 28 29  1  0
 29 30  1  0
 30 31  1  0
 30 32  1  0
 28 33  1  0
 33 34  1  0
 34 35  2  0
 18 14  1  0
M  END
>  <zinc_id>  (75) 
ZINC000008214635

>  <smiles>  (75) 
CCCCCCCCCCC[C@@H](C[C@@H]1OC(=O)[C@H]1CCCCCC)OC(=O)[C@H](CC(C)C)NC=O

$$$$

     RDKit          3D

 12 13  0  0  0  0  0  0  0  0999 V2000
   -2.0214   -2.5144   -0.5719 N   0  0  0  0  0  0  0  0  0  0  0  0
   -1.9591   -1.4426    0.3179 N   0  0  0  0  0  0  0  0  0  0  0  0
   -1.2661   -0.2264    0.0233 C   0  0  0  0  0  0  0  0  0  0  0  0
   -1.9226    0.8805   -0.4060 N   0  0  0  0  0  0  0  0  0  0  0  0
   -1.3760    2.0652   -0.1315 N   0  0  0  0  0  0  0  0  0  0  0  0
   -0.0961    2.1033    0.3107 C   0  0  0  0  0  0  0  0  0  0  0  0
    0.7290    1.0351   -0.0195 C   0  0  0  0  0  0  0  0  0  0  0  0
    2.0861    1.0807    0.2568 C   0  0  0  0  0  0  0  0  0  0  0  0
    2.7583   -0.1103    0.4921 C   0  0  0  0  0  0  0  0  0  0  0  0
    2.1412   -1.3151    0.1828 C   0  0  0  0  0  0  0  0  0  0  0  0
    0.8213   -1.3620   -0.2481 C   0  0  0  0  0  0  0  0  0  0  0  0
    0.1054   -0.1940   -0.2066 C   0  0  0  0  0  0  0  0  0  0  0  0
  1  2  1  0
  2  3  1  0
  3  4  2  0
  4  5  1  0
  5  6  2  0
  6  7  1  0
  7  8  2  0
  8  9  1  0
  9 10  2  0
 10 11  1  0
 11 12  2  0
 12  3  1  0
 12  7  1  0
M  END
>  <zinc_id>  (76) 
ZINC000012360535

>  <smiles>  (76) 
NNc1nncc2ccccc12

$$$$

     RDKit          3D

 14 13  0  0  0  0  0  0  0  0999 V2000
   -3.7517    0.7974    0.6050 C   0  0  0  0  0  0  0  0  0  0  0  0
   -3.6783    0.0234    0.8867 C   0  0  0  0  0  0  0  0  0  0  0  0
   -2.1125   -0.4345    0.6800 C   0  0  1  0  0  0  0  0  0  0  0  0
   -2.1691   -0.3763   -0.9587 C   0  0  0  0  0  0  0  0  0  0  0  0
   -3.4046   -0.7101   -1.3798 O   0  0  0  0  0  0  0  0  0  0  0  0
   -1.6311    1.0643    0.7786 N   0  0  0  0  0  0  0  0  0  0  0  0
   -0.5128    1.1438   -0.1730 C   0  0  0  0  0  0  0  0  0  0  0  0
    0.5908    0.4805    0.4651 C   0  0  0  0  0  0  0  0  0  0  0  0
    1.2408   -0.6397   -0.0198 N   0  0  0  0  0  0  0  0  0  0  0  0
    2.6876   -0.1035   -0.3466 C   0  0  1  0  0  0  0  0  0  0  0  0
    2.8227    0.7280    1.0662 C   0  0  0  0  0  0  0  0  0  0  0  0
    3.6163    1.9561    0.7495 C   0  0  0  0  0  0  0  0  0  0  0  0
    3.4112   -1.4227    0.3172 C   0  0  0  0  0  0  0  0  0  0  0  0
    2.8906   -2.5067   -0.3567 O   0  0  0  0  0  0  0  0  0  0  0  0
  1  2  1  0
  3  2  1  1
  3  4  1  0
  4  5  1  0
  3  6  1  0
  6  7  1  0
  7  8  1  0
  8  9  1  0
 10  9  1  1
 10 11  1  0
 11 12  1  0
 10 13  1  0
 13 14  1  0
M  END
>  <zinc_id>  (77) 
ZINC000019364219

>  <smiles>  (77) 
CC[C@@H](CO)NCCN[C@@H](CC)CO

$$$$

     RDKit          3D

 17 18  0  0  0  0  0  0  0  0999 V2000
   -3.9154    0.0753    0.7947 O   0  0  0  0  0  0  0  0  0  0  0  0
   -3.0418   -0.1562    0.6787 C   0  0  0  0  0  0  0  0  0  0  0  0
   -2.5164   -1.3096    0.1840 N   0  0  0  0  0  0  0  0  0  0  0  0
   -1.1945   -1.4664   -0.0682 C   0  0  0  0  0  0  0  0  0  0  0  0
   -0.7180   -2.3965   -0.7590 O   0  0  0  0  0  0  0  0  0  0  0  0
   -0.4063   -0.5746    0.5922 N   0  0  0  0  0  0  0  0  0  0  0  0
    1.1435   -0.8848    0.4447 C   0  0  1  0  0  0  0  0  0  0  0  0
    1.1144   -0.4788   -1.1508 C   0  0  0  0  0  0  0  0  0  0  0  0
    2.7183   -0.2501   -1.2920 C   0  0  2  0  0  0  0  0  0  0  0  0
    3.0331   -1.6233   -0.7362 O   0  0  0  0  0  0  0  0  0  0  0  0
    2.9796    0.4297    0.2640 C   0  0  1  0  0  0  0  0  0  0  0  0
    3.0681    1.9275   -0.4008 C   0  0  0  0  0  0  0  0  0  0  0  0
    1.8646    2.4628   -0.6059 O   0  0  0  0  0  0  0  0  0  0  0  0
    1.5552    0.5571    0.6740 O   0  0  0  0  0  0  0  0  0  0  0  0
   -0.8269    0.6554    0.5481 C   0  0  0  0  0  0  0  0  0  0  0  0
   -2.1708    0.9334    0.7383 C   0  0  0  0  0  0  0  0  0  0  0  0
   -2.6868    2.0990    0.2373 F   0  0  0  0  0  0  0  0  0  0  0  0
  1  2  2  0
  2  3  1  0
  3  4  1  0
  4  5  2  0
  4  6  1  0
  7  6  1  1
  7  8  1  0
  8  9  1  0
  9 10  1  1
  9 11  1  0
 11 12  1  6
 12 13  1  0
 11 14  1  0
  6 15  1  0
 15 16  2  0
 16 17  1  0
 16  2  1  0
 14  7  1  0
M  END
>  <zinc_id>  (78) 
ZINC000003813010

>  <smiles>  (78) 
O=c1[nH]c(=O)n([C@H]2C[C@H](O)[C@@H](CO)O2)cc1F

$$$$

     RDKit          3D

 35 37  0  0  0  0  0  0  0  0999 V2000
   -0.1099    0.2583    2.1122 C   0  0  0  0  0  0  0  0  0  0  0  0
    0.0226    0.8634    0.5618 C   0  0  2  0  0  0  0  0  0  0  0  0
   -0.2535   -0.6466   -0.0949 C   0  0  0  0  0  0  0  0  0  0  0  0
   -1.6587   -0.5940   -0.5531 C   0  0  0  0  0  0  0  0  0  0  0  0
   -2.1972    0.5118   -1.1996 C   0  0  0  0  0  0  0  0  0  0  0  0
   -3.5574    0.7951   -1.1633 C   0  0  0  0  0  0  0  0  0  0  0  0
   -4.3566    0.0057   -0.3454 C   0  0  0  0  0  0  0  0  0  0  0  0
   -3.8979   -1.2874   -0.1359 C   0  0  0  0  0  0  0  0  0  0  0  0
   -4.8814   -2.2726    0.3249 C   0  0  0  0  0  0  0  0  0  0  0  0
   -5.8691   -2.7698   -0.5796 N   0  0  0  0  0  0  0  0  0  0  0  0
   -4.8909   -2.6978    1.5155 O   0  0  0  0  0  0  0  0  0  0  0  0
   -2.5571   -1.6184   -0.2798 C   0  0  0  0  0  0  0  0  0  0  0  0
   -5.3936    0.8045    0.2363 N   0  0  0  0  0  0  0  0  0  0  0  0
   -6.3310    0.3013    1.2378 C   0  0  0  0  0  0  0  0  0  0  0  0
   -7.1873    1.4679    1.6914 C   0  0  0  0  0  0  0  0  0  0  0  0
   -7.8192    2.1039    0.4847 C   0  0  0  0  0  0  0  0  0  0  0  0
   -8.1072    1.1038   -0.4578 O   0  0  0  0  0  0  0  0  0  0  0  0
   -5.0193    2.1992    0.0196 C   0  0  0  0  0  0  0  0  0  0  0  0
   -4.2768    2.0992   -1.3079 C   0  0  0  0  0  0  0  0  0  0  0  0
    1.6041    0.6204    0.5576 N   0  0  0  0  0  0  0  0  0  0  0  0
    1.9699    1.5421   -0.5097 C   0  0  0  0  0  0  0  0  0  0  0  0
    2.7234    0.8237   -1.6160 C   0  0  0  0  0  0  0  0  0  0  0  0
    2.7459   -0.5557   -1.3405 O   0  0  0  0  0  0  0  0  0  0  0  0
    3.6312   -1.0762   -0.3983 C   0  0  0  0  0  0  0  0  0  0  0  0
    3.3067   -2.2697    0.2232 C   0  0  0  0  0  0  0  0  0  0  0  0
    4.2567   -2.9806    0.9234 C   0  0  0  0  0  0  0  0  0  0  0  0
    5.5901   -2.6906    0.7021 C   0  0  0  0  0  0  0  0  0  0  0  0
    5.9101   -1.5663   -0.0239 C   0  0  0  0  0  0  0  0  0  0  0  0
    4.9253   -0.6115   -0.2483 C   0  0  0  0  0  0  0  0  0  0  0  0
    5.2730    0.5865   -0.8329 O   0  0  0  0  0  0  0  0  0  0  0  0
    5.8370    1.6817   -0.1563 C   0  0  0  0  0  0  0  0  0  0  0  0
    7.2998    1.5064    0.1439 C   0  0  0  0  0  0  0  0  0  0  0  0
    7.9581    0.7731   -0.8091 F   0  0  0  0  0  0  0  0  0  0  0  0
    7.8996    2.7405    0.2958 F   0  0  0  0  0  0  0  0  0  0  0  0
    7.4107    0.8487    1.3406 F   0  0  0  0  0  0  0  0  0  0  0  0
  2  1  1  1
  2  3  1  0
  3  4  1  0
  4  5  2  0
  5  6  1  0
  6  7  2  0
  7  8  1  0
  8  9  1  0
  9 10  1  0
  9 11  2  0
  8 12  2  0
  7 13  1  0
 13 14  1  0
 14 15  1  0
 15 16  1  0
 16 17  1  0
 13 18  1  0
 18 19  1  0
  2 20  1  0
 20 21  1  0
 21 22  1  0
 22 23  1  0
 23 24  1  0
 24 25  2  0
 25 26  1  0
 26 27  2  0
 27 28  1  0
 28 29  2  0
 29 30  1  0
 30 31  1  0
 31 32  1  0
 32 33  1  0
 32 34  1  0
 32 35  1  0
 12  4  1  0
 29 24  1  0
 19  6  1  0
M  END
>  <zinc_id>  (79) 
ZINC000003806063

>  <smiles>  (79) 
C[C@H](Cc1cc2c(c(C(N)=O)c1)N(CCCO)CC2)NCCOc1ccccc1OCC(F)(F)F

$$$$

     RDKit          3D

 22 25  0  0  0  0  0  0  0  0999 V2000
   -3.2288   -2.2675    0.5677 C   0  0  0  0  0  0  0  0  0  0  0  0
   -3.9204   -1.0876    0.4208 C   0  0  0  0  0  0  0  0  0  0  0  0
   -5.2556   -0.9853    0.2073 N   0  0  0  0  0  0  0  0  0  0  0  0
   -5.6331    0.3050    0.3730 C   0  0  0  0  0  0  0  0  0  0  0  0
   -4.4397    0.9958    0.5105 C   0  0  0  0  0  0  0  0  0  0  0  0
   -3.4048    0.1564    0.2621 N   0  0  0  0  0  0  0  0  0  0  0  0
   -1.9982    0.5181    0.4079 C   0  0  0  0  0  0  0  0  0  0  0  0
   -1.3709    0.3376   -1.1233 C   0  0  1  0  0  0  0  0  0  0  0  0
   -0.5855    1.8029   -1.0628 C   0  0  0  0  0  0  0  0  0  0  0  0
   -0.0360    1.9632    0.2990 C   0  0  0  0  0  0  0  0  0  0  0  0
    1.2424    1.1838    0.3445 C   0  0  0  0  0  0  0  0  0  0  0  0
    1.1512    0.0202   -0.4167 C   0  0  0  0  0  0  0  0  0  0  0  0
    2.3729   -0.6060   -0.1969 C   0  0  0  0  0  0  0  0  0  0  0  0
    2.7689   -1.9380   -0.2150 C   0  0  0  0  0  0  0  0  0  0  0  0
    4.1360   -2.1487   -0.2639 C   0  0  0  0  0  0  0  0  0  0  0  0
    5.0207   -1.1104   -0.4809 C   0  0  0  0  0  0  0  0  0  0  0  0
    4.6102    0.1844   -0.1824 C   0  0  0  0  0  0  0  0  0  0  0  0
    3.2662    0.4224    0.0835 C   0  0  0  0  0  0  0  0  0  0  0  0
    2.5386    1.5587    0.2218 N   0  0  0  0  0  0  0  0  0  0  0  0
    3.0795    2.9062    0.1537 C   0  0  0  0  0  0  0  0  0  0  0  0
   -0.1346   -0.5677   -0.5690 C   0  0  0  0  0  0  0  0  0  0  0  0
   -0.1790   -1.6434   -1.2490 O   0  0  0  0  0  0  0  0  0  0  0  0
  1  2  1  0
  2  3  2  0
  3  4  1  0
  4  5  2  0
  5  6  1  0
  6  7  1  0
  8  7  1  1
  8  9  1  0
  9 10  1  0
 10 11  1  0
 11 12  2  0
 12 13  1  0
 13 14  2  0
 14 15  1  0
 15 16  2  0
 16 17  1  0
 17 18  2  0
 18 19  1  0
 19 20  1  0
 12 21  1  0
 21 22  2  0
  6  2  1  0
 21  8  1  0
 19 11  1  0
 18 13  1  0
M  END
>  <zinc_id>  (80) 
ZINC000000004448

>  <smiles>  (80) 
Cc1nccn1C[C@H]1CCc2c(c3ccccc3n2C)C1=O

$$$$

     RDKit          3D

 22 22  0  0  0  0  0  0  0  0999 V2000
    0.3785    1.6604    2.1463 C   0  0  0  0  0  0  0  0  0  0  0  0
    0.6178    0.9783    0.8364 C   0  0  0  0  0  0  0  0  0  0  0  0
   -0.1912   -0.2001    0.5029 C   0  0  0  0  0  0  0  0  0  0  0  0
   -1.1988   -0.1837   -0.3338 C   0  0  0  0  0  0  0  0  0  0  0  0
   -2.5395   -0.6876   -0.0137 C   0  0  0  0  0  0  0  0  0  0  0  0
   -2.8705   -1.9713   -0.1655 C   0  0  0  0  0  0  0  0  0  0  0  0
   -1.8149   -2.9698   -0.4456 C   0  0  0  0  0  0  0  0  0  0  0  0
   -4.3012   -2.2087   -0.5378 C   0  0  0  0  0  0  0  0  0  0  0  0
   -4.6952   -1.2528   -1.6257 C   0  0  0  0  0  0  0  0  0  0  0  0
   -4.3524    0.1777   -1.3297 C   0  0  0  0  0  0  0  0  0  0  0  0
   -3.7113    0.2435    0.0498 C   0  0  0  0  0  0  0  0  0  0  0  0
   -3.2426    1.6383    0.3850 C   0  0  0  0  0  0  0  0  0  0  0  0
   -4.7078   -0.2558    1.0904 C   0  0  0  0  0  0  0  0  0  0  0  0
    1.0729    1.6700   -0.2094 C   0  0  0  0  0  0  0  0  0  0  0  0
    1.7958    0.8800   -1.2136 C   0  0  0  0  0  0  0  0  0  0  0  0
    3.1173    1.0380   -1.2328 C   0  0  0  0  0  0  0  0  0  0  0  0
    3.8684    1.4549   -0.0452 C   0  0  0  0  0  0  0  0  0  0  0  0
    4.0885    2.8997    0.2734 C   0  0  0  0  0  0  0  0  0  0  0  0
    4.2879    0.4929    0.7533 C   0  0  0  0  0  0  0  0  0  0  0  0
    4.6982   -0.7993    0.2513 C   0  0  0  0  0  0  0  0  0  0  0  0
    3.8322   -1.7023    0.0611 O   0  0  0  0  0  0  0  0  0  0  0  0
    5.8680   -0.9024   -0.4740 O   0  0  0  0  0  0  0  0  0  0  0  0
  1  2  1  0
  2  3  1  0
  3  4  2  0
  4  5  1  0
  5  6  2  0
  6  7  1  0
  6  8  1  0
  8  9  1  0
  9 10  1  0
 10 11  1  0
 11 12  1  0
 11 13  1  0
  2 14  2  0
 14 15  1  0
 15 16  2  0
 16 17  1  0
 17 18  1  0
 17 19  2  0
 19 20  1  0
 20 21  2  0
 20 22  1  0
 11  5  1  0
M  END
>  <zinc_id>  (81) 
ZINC000009212654

>  <smiles>  (81) 
CC1=C(/C=C/C(C)=C\C=C/C(C)=C\C(=O)O)C(C)(C)CCC1

$$$$

     RDKit          3D

 29 30  0  0  0  0  0  0  0  0999 V2000
    1.0221   -0.2617   -1.8119 C   0  0  0  0  0  0  0  0  0  0  0  0
    1.4096    0.7802   -0.8252 C   0  0  2  0  0  0  0  0  0  0  0  0
    2.1948    1.7262   -1.4988 O   0  0  0  0  0  0  0  0  0  0  0  0
    2.0511    0.2949    0.4209 C   0  0  0  0  0  0  0  0  0  0  0  0
    2.4893   -1.3871    0.4820 S   0  0  0  0  0  0  0  0  0  0  0  0
    1.7883   -2.2692   -0.4853 O   0  0  0  0  0  0  0  0  0  0  0  0
    2.1564   -1.9058    1.8646 O   0  0  0  0  0  0  0  0  0  0  0  0
    4.2401   -1.5060    0.3330 C   0  0  0  0  0  0  0  0  0  0  0  0
    4.8618   -1.4472   -0.9086 C   0  0  0  0  0  0  0  0  0  0  0  0
    6.0905   -0.8145   -1.0517 C   0  0  0  0  0  0  0  0  0  0  0  0
    6.6735   -0.1204    0.0017 C   0  0  0  0  0  0  0  0  0  0  0  0
    7.3473    1.0371   -0.1722 F   0  0  0  0  0  0  0  0  0  0  0  0
    6.2509   -0.5170    1.2648 C   0  0  0  0  0  0  0  0  0  0  0  0
    5.0582   -1.2128    1.4175 C   0  0  0  0  0  0  0  0  0  0  0  0
    0.1566    1.4925   -0.4210 C   0  0  0  0  0  0  0  0  0  0  0  0
   -0.2646    2.5240   -0.9778 O   0  0  0  0  0  0  0  0  0  0  0  0
   -0.5537    0.9999    0.7176 N   0  0  0  0  0  0  0  0  0  0  0  0
   -1.9842    1.0685    0.7310 C   0  0  0  0  0  0  0  0  0  0  0  0
   -2.6086    2.2838    0.7199 C   0  0  0  0  0  0  0  0  0  0  0  0
   -3.9842    2.3483    0.7086 C   0  0  0  0  0  0  0  0  0  0  0  0
   -4.7052    1.1756    0.5663 C   0  0  0  0  0  0  0  0  0  0  0  0
   -6.1175    1.2304    0.4202 C   0  0  0  0  0  0  0  0  0  0  0  0
   -7.2441    1.3642    0.3004 N   0  0  0  0  0  0  0  0  0  0  0  0
   -4.1084   -0.0410    0.3761 C   0  0  0  0  0  0  0  0  0  0  0  0
   -4.7651   -1.3393    0.3638 C   0  0  0  0  0  0  0  0  0  0  0  0
   -4.3098   -2.0530    1.4689 F   0  0  0  0  0  0  0  0  0  0  0  0
   -4.3200   -2.0310   -0.7592 F   0  0  0  0  0  0  0  0  0  0  0  0
   -6.1071   -1.3726    0.3681 F   0  0  0  0  0  0  0  0  0  0  0  0
   -2.7180   -0.0467    0.4110 C   0  0  0  0  0  0  0  0  0  0  0  0
  2  1  1  6
  2  3  1  0
  2  4  1  0
  4  5  1  0
  5  6  2  0
  5  7  2  0
  5  8  1  0
  8  9  2  0
  9 10  1  0
 10 11  2  0
 11 12  1  0
 11 13  1  0
 13 14  2  0
  2 15  1  0
 15 16  2  0
 15 17  1  0
 17 18  1  0
 18 19  2  0
 19 20  1  0
 20 21  2  0
 21 22  1  0
 22 23  3  0
 21 24  1  0
 24 25  1  0
 25 26  1  0
 25 27  1  0
 25 28  1  0
 24 29  2  0
 14  8  1  0
 29 18  1  0
M  END
>  <zinc_id>  (82) 
ZINC000000538564

>  <smiles>  (82) 
C[C@](O)(CS(=O)(=O)c1ccc(F)cc1)C(=O)Nc1ccc(C#N)c(C(F)(F)F)c1

$$$$

     RDKit          3D

 35 38  0  0  0  0  0  0  0  0999 V2000
   -2.4928    5.4354    0.7994 C   0  0  0  0  0  0  0  0  0  0  0  0
   -2.9485    4.7480   -0.4790 C   0  0  0  0  0  0  0  0  0  0  0  0
   -3.0963    3.4188   -0.1946 O   0  0  0  0  0  0  0  0  0  0  0  0
   -2.1992    2.3990   -0.2215 C   0  0  0  0  0  0  0  0  0  0  0  0
   -1.5971    2.4025   -1.2746 O   0  0  0  0  0  0  0  0  0  0  0  0
   -1.5603    1.6992    0.7634 O   0  0  0  0  0  0  0  0  0  0  0  0
   -1.5234    0.3297    0.7681 C   0  0  2  0  0  0  0  0  0  0  0  0
   -2.8985   -0.2146    0.4884 C   0  0  0  0  0  0  0  0  0  0  0  0
   -3.7539    0.1453    1.3015 O   0  0  0  0  0  0  0  0  0  0  0  0
   -3.3732   -0.1216   -0.9323 C   0  0  0  0  0  0  0  0  0  0  0  0
   -3.7844   -1.4262   -1.3057 O   0  0  0  0  0  0  0  0  0  0  0  0
   -4.9328   -1.9613   -0.7243 C   0  0  0  0  0  0  0  0  0  0  0  0
   -5.8596   -1.1894   -0.3952 O   0  0  0  0  0  0  0  0  0  0  0  0
   -5.0354   -3.4272   -0.4957 C   0  0  0  0  0  0  0  0  0  0  0  0
   -3.7748   -3.9601    0.1542 C   0  0  0  0  0  0  0  0  0  0  0  0
   -1.3431   -0.1505    2.2220 C   0  0  0  0  0  0  0  0  0  0  0  0
   -0.1652   -1.1253    2.2219 C   0  0  0  0  0  0  0  0  0  0  0  0
    0.6744   -0.1545    1.2343 C   0  0  1  0  0  0  0  0  0  0  0  0
    1.6302   -1.3517    0.5133 C   0  0  2  0  0  0  0  0  0  0  0  0
    2.6559   -1.3408    1.7408 C   0  0  0  0  0  0  0  0  0  0  0  0
    4.0427   -1.5488    1.3623 C   0  0  0  0  0  0  0  0  0  0  0  0
    4.5361   -0.9789    0.1118 C   0  0  0  0  0  0  0  0  0  0  0  0
    5.2653    0.1391    0.1453 C   0  0  0  0  0  0  0  0  0  0  0  0
    5.5823    0.8307   -1.1020 C   0  0  0  0  0  0  0  0  0  0  0  0
    6.1489    1.9553   -1.1509 O   0  0  0  0  0  0  0  0  0  0  0  0
    5.0204    0.2743   -2.3281 C   0  0  0  0  0  0  0  0  0  0  0  0
    3.9005   -0.4063   -2.2301 C   0  0  0  0  0  0  0  0  0  0  0  0
    3.5203   -1.0417   -0.9685 C   0  0  1  0  0  0  0  0  0  0  0  0
    3.0094   -2.3992   -1.2234 C   0  0  0  0  0  0  0  0  0  0  0  0
    2.4095   -0.1055   -0.2931 C   0  0  1  0  0  0  0  0  0  0  0  0
    1.4375   -0.1738   -1.6943 C   0  0  2  0  0  0  0  0  0  0  0  0
    1.7406    1.2898   -1.9806 O   0  0  0  0  0  0  0  0  0  0  0  0
    0.0356    0.2466   -1.0013 C   0  0  0  0  0  0  0  0  0  0  0  0
   -0.4393   -0.3913    0.0810 C   0  0  2  0  0  0  0  0  0  0  0  0
   -0.8320   -1.8454    0.0864 C   0  0  0  0  0  0  0  0  0  0  0  0
  1  2  1  0
  2  3  1  0
  3  4  1  0
  4  5  2  0
  4  6  1  0
  7  6  1  1
  7  8  1  0
  8  9  2  0
  8 10  1  0
 10 11  1  0
 11 12  1  0
 12 13  2  0
 12 14  1  0
 14 15  1  0
  7 16  1  0
 16 17  1  0
 18 17  1  1
 18 19  1  0
 19 20  1  1
 20 21  1  0
 21 22  1  0
 22 23  2  0
 23 24  1  0
 24 25  2  0
 24 26  1  0
 26 27  2  0
 27 28  1  0
 28 29  1  6
 30 28  1  6
 30 31  1  0
 31 32  1  6
 31 33  1  0
 33 34  1  0
 34 35  1  6
 34  7  1  0
 34 18  1  0
 30 19  1  0
 28 22  1  0
M  END
>  <zinc_id>  (83) 
ZINC000118913562

>  <smiles>  (83) 
CCOC(=O)O[C@]1(C(=O)COC(=O)CC)CC[C@H]2[C@@H]3CCC4=CC(=O)C=C[C@]4(C)[C@H]3[C@H](O)C[C@@]21C

$$$$

     RDKit          3D

 30 31  0  0  0  0  0  0  0  0999 V2000
   -5.3957   -0.6446    0.4308 C   0  0  0  0  0  0  0  0  0  0  0  0
   -5.3047   -1.0371    0.4024 O   0  0  0  0  0  0  0  0  0  0  0  0
   -5.0342   -2.3278   -0.0369 C   0  0  0  0  0  0  0  0  0  0  0  0
   -3.6802   -2.2979   -0.7208 C   0  0  0  0  0  0  0  0  0  0  0  0
   -2.7917   -1.4087   -0.1009 O   0  0  0  0  0  0  0  0  0  0  0  0
   -1.4854   -1.8123    0.1775 C   0  0  0  0  0  0  0  0  0  0  0  0
   -1.2456   -3.0261    0.2803 O   0  0  0  0  0  0  0  0  0  0  0  0
   -0.6227   -0.7500    0.7174 C   0  0  0  0  0  0  0  0  0  0  0  0
   -1.1235   -0.0433    1.7212 C   0  0  0  0  0  0  0  0  0  0  0  0
   -2.2976   -0.4550    2.5143 C   0  0  0  0  0  0  0  0  0  0  0  0
    0.0251    0.5868    2.3081 N   0  0  0  0  0  0  0  0  0  0  0  0
    0.9199    1.2014    1.4115 C   0  0  0  0  0  0  0  0  0  0  0  0
    1.8057    2.2803    1.9541 C   0  0  0  0  0  0  0  0  0  0  0  0
    0.4867    1.4108    0.2376 C   0  0  0  0  0  0  0  0  0  0  0  0
    0.3068    2.6959   -0.4513 C   0  0  0  0  0  0  0  0  0  0  0  0
   -0.8632    2.9471   -0.8757 O   0  0  0  0  0  0  0  0  0  0  0  0
    1.2778    3.6536   -0.5915 O   0  0  0  0  0  0  0  0  0  0  0  0
    0.8846    4.9498   -1.0142 C   0  0  0  0  0  0  0  0  0  0  0  0
   -0.6183    5.1245   -0.9197 C   0  0  0  0  0  0  0  0  0  0  0  0
    1.5931    5.9603   -0.1346 C   0  0  0  0  0  0  0  0  0  0  0  0
   -0.2511    0.1975   -0.5782 C   0  0  1  0  0  0  0  0  0  0  0  0
    1.1724   -0.5685   -0.8754 C   0  0  0  0  0  0  0  0  0  0  0  0
    1.1008   -1.3976   -1.9919 C   0  0  0  0  0  0  0  0  0  0  0  0
    1.7603   -2.6172   -1.9709 C   0  0  0  0  0  0  0  0  0  0  0  0
    2.5689   -2.9243   -0.8834 C   0  0  0  0  0  0  0  0  0  0  0  0
    2.9395   -1.8578   -0.0723 C   0  0  0  0  0  0  0  0  0  0  0  0
    3.8121   -2.1758    1.0163 N   0  0  0  0  0  0  0  0  0  0  0  0
    4.3454   -3.3029    1.1459 O   0  0  0  0  0  0  0  0  0  0  0  0
    3.8102   -1.4008    2.1639 O   0  0  0  0  0  0  0  0  0  0  0  0
    1.9043   -0.9603    0.1718 C   0  0  0  0  0  0  0  0  0  0  0  0
  1  2  1  0
  2  3  1  0
  3  4  1  0
  4  5  1  0
  5  6  1  0
  6  7  2  0
  6  8  1  0
  8  9  2  0
  9 10  1  0
  9 11  1  0
 11 12  1  0
 12 13  1  0
 12 14  2  0
 14 15  1  0
 15 16  2  0
 15 17  1  0
 17 18  1  0
 18 19  1  0
 18 20  1  0
 14 21  1  0
 21 22  1  6
 22 23  2  0
 23 24  1  0
 24 25  2  0
 25 26  1  0
 26 27  1  0
 27 28  2  0
 27 29  1  0
 26 30  2  0
 21  8  1  0
 30 22  1  0
M  CHG  2  27   1  29  -1
M  END
>  <zinc_id>  (84) 
ZINC000019632718

>  <smiles>  (84) 
COCCOC(=O)C1=C(C)NC(C)=C(C(=O)OC(C)C)[C@H]1c1cccc([N+](=O)[O-])c1

$$$$

     RDKit          3D

 28 31  0  0  0  0  0  0  0  0999 V2000
   -6.5571    2.3186   -1.2236 C   0  0  0  0  0  0  0  0  0  0  0  0
   -5.2168    2.0698   -1.5245 O   0  0  0  0  0  0  0  0  0  0  0  0
   -4.6600    0.8418   -1.1518 C   0  0  0  0  0  0  0  0  0  0  0  0
   -3.3454    0.5090   -1.3934 C   0  0  0  0  0  0  0  0  0  0  0  0
   -2.6097   -0.3370   -0.5773 C   0  0  0  0  0  0  0  0  0  0  0  0
   -3.2335   -0.8884    0.5140 C   0  0  0  0  0  0  0  0  0  0  0  0
   -4.6177   -0.8082    0.5817 C   0  0  0  0  0  0  0  0  0  0  0  0
   -5.3453   -0.0188   -0.3016 C   0  0  0  0  0  0  0  0  0  0  0  0
   -6.7063    0.2139   -0.1101 O   0  0  0  0  0  0  0  0  0  0  0  0
   -7.3768   -0.1551    1.0850 C   0  0  0  0  0  0  0  0  0  0  0  0
   -2.2670   -0.9495    1.6104 C   0  0  0  0  0  0  0  0  0  0  0  0
   -2.4267   -1.5466    2.7200 O   0  0  0  0  0  0  0  0  0  0  0  0
   -0.9595   -1.4384    0.7678 C   0  0  2  0  0  0  0  0  0  0  0  0
    0.0432   -0.4890    1.6944 C   0  0  0  0  0  0  0  0  0  0  0  0
    1.3651   -0.5365    0.9931 C   0  0  0  0  0  0  0  0  0  0  0  0
    1.5352   -1.9191    0.3744 C   0  0  0  0  0  0  0  0  0  0  0  0
    2.9689   -1.9669   -0.1118 C   0  0  0  0  0  0  0  0  0  0  0  0
    3.2625   -0.9443   -1.0866 N   0  0  0  0  0  0  0  0  0  0  0  0
    4.6673   -1.0183   -1.3886 C   0  0  0  0  0  0  0  0  0  0  0  0
    5.4479    0.1280   -0.8832 C   0  0  0  0  0  0  0  0  0  0  0  0
    5.8578    0.2069    0.4414 C   0  0  0  0  0  0  0  0  0  0  0  0
    6.7713    1.1668    0.8528 C   0  0  0  0  0  0  0  0  0  0  0  0
    7.0892    2.1596   -0.0657 C   0  0  0  0  0  0  0  0  0  0  0  0
    6.7685    2.0129   -1.4080 C   0  0  0  0  0  0  0  0  0  0  0  0
    6.2735    0.7781   -1.7933 C   0  0  0  0  0  0  0  0  0  0  0  0
    2.9153    0.3805   -0.6564 C   0  0  0  0  0  0  0  0  0  0  0  0
    1.4994    0.4537   -0.1278 C   0  0  0  0  0  0  0  0  0  0  0  0
   -1.1434   -0.2235   -0.3469 C   0  0  0  0  0  0  0  0  0  0  0  0
  1  2  1  0
  2  3  1  0
  3  4  2  0
  4  5  1  0
  5  6  2  0
  6  7  1  0
  7  8  2  0
  8  9  1  0
  9 10  1  0
  6 11  1  0
 11 12  2  0
 11 13  1  0
 13 14  1  1
 14 15  1  0
 15 16  1  0
 16 17  1  0
 17 18  1  0
 18 19  1  0
 19 20  1  0
 20 21  2  0
 21 22  1  0
 22 23  2  0
 23 24  1  0
 24 25  2  0
 18 26  1  0
 26 27  1  0
 13 28  1  0
  8  3  1  0
 27 15  1  0
 28  5  1  0
 25 20  1  0
M  END
>  <zinc_id>  (85) 
ZINC000000897251

>  <smiles>  (85) 
COc1cc2c(cc1OC)C(=O)[C@H](CC1CCN(Cc3ccccc3)CC1)C2

$$$$

     RDKit          3D

 25 27  0  0  0  0  0  0  0  0999 V2000
   -7.0152   -0.5935   -1.3416 C   0  0  0  0  0  0  0  0  0  0  0  0
   -6.9751   -1.0042   -0.3527 C   0  0  0  0  0  0  0  0  0  0  0  0
   -5.6959   -0.8074    0.3966 C   0  0  0  0  0  0  0  0  0  0  0  0
   -5.7268   -0.4302    1.7330 C   0  0  0  0  0  0  0  0  0  0  0  0
   -4.5853    0.1686    2.2459 C   0  0  0  0  0  0  0  0  0  0  0  0
   -3.5903    0.6387    1.3981 C   0  0  0  0  0  0  0  0  0  0  0  0
   -2.5065    1.4281    2.0487 C   0  0  0  0  0  0  0  0  0  0  0  0
   -1.6715    0.4386    2.8532 C   0  0  0  0  0  0  0  0  0  0  0  0
   -1.2340   -0.5454    1.9225 O   0  0  0  0  0  0  0  0  0  0  0  0
   -0.3963   -0.1115    0.8897 C   0  0  0  0  0  0  0  0  0  0  0  0
    0.0480    1.2034    0.8122 C   0  0  0  0  0  0  0  0  0  0  0  0
    1.1788    1.5481    0.0818 C   0  0  0  0  0  0  0  0  0  0  0  0
    2.0839    0.5526   -0.2543 C   0  0  0  0  0  0  0  0  0  0  0  0
    3.3878    0.8504   -0.9215 C   0  0  0  0  0  0  0  0  0  0  0  0
    4.3325   -0.3796   -0.5272 C   0  0  2  0  0  0  0  0  0  0  0  0
    5.9527    0.6382   -0.6578 S   0  0  0  0  0  0  0  0  0  0  0  0
    6.7834   -0.4822   -1.7942 C   0  0  0  0  0  0  0  0  0  0  0  0
    7.9902   -0.8224   -1.6018 O   0  0  0  0  0  0  0  0  0  0  0  0
    5.7861   -1.4697   -2.0838 N   0  0  0  0  0  0  0  0  0  0  0  0
    4.4849   -0.8944   -2.0016 C   0  0  0  0  0  0  0  0  0  0  0  0
    3.4911   -1.4263   -2.5826 O   0  0  0  0  0  0  0  0  0  0  0  0
    1.6457   -0.7488   -0.1914 C   0  0  0  0  0  0  0  0  0  0  0  0
    0.3111   -1.0074    0.0969 C   0  0  0  0  0  0  0  0  0  0  0  0
   -3.5702    0.2699    0.1130 N   0  0  0  0  0  0  0  0  0  0  0  0
   -4.5089   -0.6235   -0.2812 C   0  0  0  0  0  0  0  0  0  0  0  0
  1  2  1  0
  2  3  1  0
  3  4  2  0
  4  5  1  0
  5  6  2  0
  6  7  1  0
  7  8  1  0
  8  9  1  0
  9 10  1  0
 10 11  2  0
 11 12  1  0
 12 13  2  0
 13 14  1  0
 15 14  1  6
 15 16  1  0
 16 17  1  0
 17 18  2  0
 17 19  1  0
 19 20  1  0
 20 21  2  0
 13 22  1  0
 22 23  2  0
  6 24  1  0
 24 25  2  0
 25  3  1  0
 23 10  1  0
 20 15  1  0
M  END
>  <zinc_id>  (86) 
ZINC000000968326

>  <smiles>  (86) 
CCc1ccc(CCOc2ccc(C[C@@H]3SC(=O)NC3=O)cc2)nc1

$$$$

     RDKit          3D

 15 15  0  0  0  0  0  0  0  0999 V2000
    3.3091    0.6937   -0.5999 C   0  0  0  0  0  0  0  0  0  0  0  0
    2.6056    0.7839    0.1906 C   0  0  0  0  0  0  0  0  0  0  0  0
    1.7556   -0.6008    0.4381 C   0  0  2  0  0  0  0  0  0  0  0  0
    2.1010   -1.1517   -1.0718 C   0  0  0  0  0  0  0  0  0  0  0  0
    0.3152    0.0085   -0.0218 C   0  0  0  0  0  0  0  0  0  0  0  0
    0.4334    1.3014   -0.6527 C   0  0  0  0  0  0  0  0  0  0  0  0
    0.3597    2.3826    0.4235 C   0  0  0  0  0  0  0  0  0  0  0  0
   -0.3681   -1.0695   -0.7853 C   0  0  0  0  0  0  0  0  0  0  0  0
   -0.0915   -2.2984   -0.6188 O   0  0  0  0  0  0  0  0  0  0  0  0
   -1.7288   -0.7407   -1.0998 N   0  0  0  0  0  0  0  0  0  0  0  0
   -2.4821    0.1779   -0.2913 C   0  0  0  0  0  0  0  0  0  0  0  0
   -3.7286    0.3392   -0.4710 O   0  0  0  0  0  0  0  0  0  0  0  0
   -1.8884    0.3667    1.0021 N   0  0  0  0  0  0  0  0  0  0  0  0
   -0.4901    0.1541    1.2314 C   0  0  0  0  0  0  0  0  0  0  0  0
   -0.1021   -0.3469    2.3267 O   0  0  0  0  0  0  0  0  0  0  0  0
  1  2  1  0
  3  2  1  6
  3  4  1  0
  3  5  1  0
  5  6  1  0
  6  7  1  0
  5  8  1  0
  8  9  2  0
  8 10  1  0
 10 11  1  0
 11 12  2  0
 11 13  1  0
 13 14  1  0
 14 15  2  0
 14  5  1  0
M  END
>  <zinc_id>  (87) 
ZINC000000968345

>  <smiles>  (87) 
CC[C@H](C)C1(CC)C(=O)NC(=O)NC1=O

$$$$

     RDKit          3D

 11 10  0  0  0  0  0  0  0  0999 V2000
   -3.6222    1.4941   -1.2052 C   0  0  0  0  0  0  0  0  0  0  0  0
   -3.0107    0.2968   -0.5474 C   0  0  0  0  0  0  0  0  0  0  0  0
   -3.5005    0.0112    0.5865 O   0  0  0  0  0  0  0  0  0  0  0  0
   -1.6131    0.0250   -0.7055 N   0  0  0  0  0  0  0  0  0  0  0  0
   -1.1507   -1.2282   -0.1278 C   0  0  0  0  0  0  0  0  0  0  0  0
    0.2106   -1.0779    0.4993 C   0  0  0  0  0  0  0  0  0  0  0  0
    1.3056   -0.9960   -0.5548 C   0  0  0  0  0  0  0  0  0  0  0  0
    2.5824    0.0873    0.0444 S   0  0  0  0  0  0  0  0  0  0  0  0
    2.0535    0.8800    1.2186 O   0  0  0  0  0  0  0  0  0  0  0  0
    3.7824   -0.6659    0.5093 O   0  0  0  0  0  0  0  0  0  0  0  0
    2.9627    1.1736   -1.1689 O   0  0  0  0  0  0  0  0  0  0  0  0
  1  2  1  0
  2  3  2  0
  2  4  1  0
  4  5  1  0
  5  6  1  0
  6  7  1  0
  7  8  1  0
  8  9  2  0
  8 10  2  0
  8 11  1  0
M  END
>  <zinc_id>  (88) 
ZINC000001554588

>  <smiles>  (88) 
CC(=O)NCCCS(=O)(=O)O

$$$$

     RDKit          3D

 14 15  0  0  0  0  0  0  0  0999 V2000
   -1.7456    2.0644    0.4281 O   0  0  0  0  0  0  0  0  0  0  0  0
   -0.9313    1.7842    0.5256 C   0  0  0  0  0  0  0  0  0  0  0  0
    0.0066    2.7808    0.6949 O   0  0  0  0  0  0  0  0  0  0  0  0
   -0.4778    0.6380   -0.5485 C   0  0  1  0  0  0  0  0  0  0  0  0
    0.8856    0.3016    0.2982 C   0  0  0  0  0  0  0  0  0  0  0  0
    1.8933    1.1729    0.2237 C   0  0  0  0  0  0  0  0  0  0  0  0
    3.2971    0.7866   -0.0024 C   0  0  0  0  0  0  0  0  0  0  0  0
    3.3596   -0.5304   -0.4852 O   0  0  0  0  0  0  0  0  0  0  0  0
    0.9089   -0.8448   -0.5048 O   0  0  0  0  0  0  0  0  0  0  0  0
   -0.1961   -1.6759    0.2357 C   0  0  2  0  0  0  0  0  0  0  0  0
   -0.9272   -2.1102   -1.2037 C   0  0  0  0  0  0  0  0  0  0  0  0
   -2.0454   -1.5791   -0.3520 C   0  0  0  0  0  0  0  0  0  0  0  0
   -2.7575   -2.2890    0.4122 O   0  0  0  0  0  0  0  0  0  0  0  0
   -1.2702   -0.4991    0.2204 N   0  0  0  0  0  0  0  0  0  0  0  0
  1  2  2  0
  2  3  1  0
  4  2  1  1
  4  5  1  0
  5  6  2  0
  6  7  1  0
  7  8  1  0
  5  9  1  0
 10  9  1  6
 10 11  1  0
 11 12  1  0
 12 13  2  0
 12 14  1  0
 14  4  1  0
 14 10  1  0
M  END
>  <zinc_id>  (89) 
ZINC000003830569

>  <smiles>  (89) 
O=C(O)[C@H]1/C(=C/CO)O[C@@H]2CC(=O)N21

$$$$

     RDKit          3D

 26 28  0  0  0  0  0  0  0  0999 V2000
    2.0692    2.0702    0.5153 O   0  0  0  0  0  0  0  0  0  0  0  0
    1.4419    1.0340    0.8919 C   0  0  0  0  0  0  0  0  0  0  0  0
    2.2359   -0.0266    1.3942 N   0  0  0  0  0  0  0  0  0  0  0  0
    3.5806   -0.2668    0.9577 C   0  0  0  0  0  0  0  0  0  0  0  0
    3.7851   -1.2592    0.0053 C   0  0  0  0  0  0  0  0  0  0  0  0
    2.7936   -2.7139    0.0866 Cl  0  0  0  0  0  0  0  0  0  0  0  0
    4.7277   -1.0787   -1.0009 C   0  0  0  0  0  0  0  0  0  0  0  0
    5.6353   -0.0818   -0.8619 N   0  0  0  0  0  0  0  0  0  0  0  0
    5.4725    0.9034    0.0536 C   0  0  0  0  0  0  0  0  0  0  0  0
    4.4282    0.8350    0.9676 C   0  0  0  0  0  0  0  0  0  0  0  0
    4.4644    1.7423    2.4774 Cl  0  0  0  0  0  0  0  0  0  0  0  0
    0.1228    0.8351    0.2780 C   0  0  0  0  0  0  0  0  0  0  0  0
    0.1048    0.8861   -1.1110 C   0  0  0  0  0  0  0  0  0  0  0  0
   -1.1597    0.9539   -1.6854 C   0  0  0  0  0  0  0  0  0  0  0  0
   -2.1372    0.1488   -1.1386 C   0  0  0  0  0  0  0  0  0  0  0  0
   -3.4298    0.2329   -1.6570 O   0  0  0  0  0  0  0  0  0  0  0  0
   -3.6279    0.8053   -2.9465 C   0  0  0  0  0  0  0  0  0  0  0  0
   -3.1678    2.1185   -2.9697 F   0  0  0  0  0  0  0  0  0  0  0  0
   -2.8650    0.0838   -3.8595 F   0  0  0  0  0  0  0  0  0  0  0  0
   -1.9700   -0.3494    0.1413 C   0  0  0  0  0  0  0  0  0  0  0  0
   -2.9458   -1.1419    0.7240 O   0  0  0  0  0  0  0  0  0  0  0  0
   -4.2792   -0.6978    0.6218 C   0  0  0  0  0  0  0  0  0  0  0  0
   -5.1153   -1.3745    1.6708 C   0  0  0  0  0  0  0  0  0  0  0  0
   -4.6222   -2.5240    2.4506 C   0  0  0  0  0  0  0  0  0  0  0  0
   -4.7093   -1.1455    3.1425 C   0  0  0  0  0  0  0  0  0  0  0  0
   -0.8328    0.0107    0.8520 C   0  0  0  0  0  0  0  0  0  0  0  0
  1  2  2  0
  2  3  1  0
  3  4  1  0
  4  5  2  0
  5  6  1  0
  5  7  1  0
  7  8  2  0
  8  9  1  0
  9 10  2  0
 10 11  1  0
  2 12  1  0
 12 13  2  0
 13 14  1  0
 14 15  2  0
 15 16  1  0
 16 17  1  0
 17 18  1  0
 17 19  1  0
 15 20  1  0
 20 21  1  0
 21 22  1  0
 22 23  1  0
 23 24  1  0
 24 25  1  0
 20 26  2  0
 10  4  1  0
 26 12  1  0
 25 23  1  0
M  END
>  <zinc_id>  (90) 
ZINC000000592419

>  <smiles>  (90) 
O=C(Nc1c(Cl)cncc1Cl)c1ccc(OC(F)F)c(OCC2CC2)c1

$$$$

     RDKit          3D

 31 33  0  0  0  0  0  0  0  0999 V2000
   -3.1234   -3.0059   -1.5421 C   0  0  0  0  0  0  0  0  0  0  0  0
   -2.8984   -2.4346   -0.2662 O   0  0  0  0  0  0  0  0  0  0  0  0
   -3.5129   -1.2028   -0.0113 C   0  0  0  0  0  0  0  0  0  0  0  0
   -4.8341   -1.2332    0.4194 C   0  0  0  0  0  0  0  0  0  0  0  0
   -5.3436   -2.5063    1.0186 C   0  0  0  0  0  0  0  0  0  0  0  0
   -5.7413   -0.2555    0.0284 C   0  0  0  0  0  0  0  0  0  0  0  0
   -5.2711    0.7930   -0.7538 C   0  0  0  0  0  0  0  0  0  0  0  0
   -3.9031    0.9573   -0.8814 C   0  0  0  0  0  0  0  0  0  0  0  0
   -3.4292    2.1815   -1.3174 O   0  0  0  0  0  0  0  0  0  0  0  0
   -2.9841   -0.0126   -0.5012 C   0  0  0  0  0  0  0  0  0  0  0  0
   -1.7690   -0.1710   -1.3488 C   0  0  0  0  0  0  0  0  0  0  0  0
   -0.6632    0.7242   -0.9715 C   0  0  0  0  0  0  0  0  0  0  0  0
    0.2196    0.4633    0.0005 C   0  0  0  0  0  0  0  0  0  0  0  0
   -0.3742   -0.2523    1.1773 C   0  0  0  0  0  0  0  0  0  0  0  0
    1.6881    0.3167   -0.2613 C   0  0  0  0  0  0  0  0  0  0  0  0
    2.5189    1.2684    0.5486 C   0  0  0  0  0  0  0  0  0  0  0  0
    3.3589    0.5606    1.5656 C   0  0  0  0  0  0  0  0  0  0  0  0
    2.9284   -0.4089    2.2290 O   0  0  0  0  0  0  0  0  0  0  0  0
    4.4696    1.2198    2.0445 O   0  0  0  0  0  0  0  0  0  0  0  0
    5.5231    0.5189    2.6537 C   0  0  0  0  0  0  0  0  0  0  0  0
    5.8403   -0.7768    1.9587 C   0  0  0  0  0  0  0  0  0  0  0  0
    6.3495   -0.5958    0.6212 N   0  0  0  0  0  0  0  0  0  0  0  0
    6.4163    0.7878    0.2197 C   0  0  0  0  0  0  0  0  0  0  0  0
    7.8608    1.0783   -0.1416 C   0  0  0  0  0  0  0  0  0  0  0  0
    8.3165    0.2793   -1.1815 O   0  0  0  0  0  0  0  0  0  0  0  0
    8.2616   -1.0811   -0.8397 C   0  0  0  0  0  0  0  0  0  0  0  0
    7.6115   -1.2815    0.5163 C   0  0  0  0  0  0  0  0  0  0  0  0
   -6.4406    1.4253   -1.3808 C   0  0  0  0  0  0  0  0  0  0  0  0
   -6.3090    2.1692   -2.3995 O   0  0  0  0  0  0  0  0  0  0  0  0
   -7.5310    0.5828   -1.1868 O   0  0  0  0  0  0  0  0  0  0  0  0
   -7.2348   -0.1752   -0.0165 C   0  0  0  0  0  0  0  0  0  0  0  0
  1  2  1  0
  2  3  1  0
  3  4  2  0
  4  5  1  0
  4  6  1  0
  6  7  2  0
  7  8  1  0
  8  9  1  0
  8 10  2  0
 10 11  1  0
 11 12  1  0
 12 13  2  0
 13 14  1  0
 13 15  1  0
 15 16  1  0
 16 17  1  0
 17 18  2  0
 17 19  1  0
 19 20  1  0
 20 21  1  0
 21 22  1  0
 22 23  1  0
 23 24  1  0
 24 25  1  0
 25 26  1  0
 26 27  1  0
  7 28  1  0
 28 29  2  0
 28 30  1  0
 30 31  1  0
 10  3  1  0
 27 22  1  0
 31  6  1  0
M  END
>  <zinc_id>  (91) 
ZINC000021297660

>  <smiles>  (91) 
COc1c(C)c2c(c(O)c1C/C=C(\C)CCC(=O)OCCN1CCOCC1)C(=O)OC2

$$$$

     RDKit          3D

 16 17  0  0  0  0  0  0  0  0999 V2000
   -1.8551    3.2241    0.0668 N   0  0  0  0  0  0  0  0  0  0  0  0
   -1.8088    1.8052    0.1433 C   0  0  0  0  0  0  0  0  0  0  0  0
   -0.6177    1.1930    0.0692 N   0  0  0  0  0  0  0  0  0  0  0  0
   -0.4985   -0.1241   -0.2121 C   0  0  0  0  0  0  0  0  0  0  0  0
   -1.6832   -0.8516   -0.1608 C   0  0  0  0  0  0  0  0  0  0  0  0
   -1.3130   -2.1394   -0.3398 N   0  0  0  0  0  0  0  0  0  0  0  0
    0.0335   -2.1588   -0.4887 C   0  0  0  0  0  0  0  0  0  0  0  0
    0.5457   -0.9836   -0.1091 N   0  0  0  0  0  0  0  0  0  0  0  0
    1.7208   -0.6904    0.7051 C   0  0  0  0  0  0  0  0  0  0  0  0
    2.8647   -1.1588    0.0882 O   0  0  0  0  0  0  0  0  0  0  0  0
    3.9250   -0.3734    0.5678 C   0  0  0  0  0  0  0  0  0  0  0  0
    4.5371    0.4655   -0.5453 C   0  0  0  0  0  0  0  0  0  0  0  0
    3.9771    1.7525   -0.4848 O   0  0  0  0  0  0  0  0  0  0  0  0
   -2.9130   -0.2096   -0.0871 C   0  0  0  0  0  0  0  0  0  0  0  0
   -3.9612   -0.8857   -0.1881 O   0  0  0  0  0  0  0  0  0  0  0  0
   -2.9535    1.1351    0.0051 N   0  0  0  0  0  0  0  0  0  0  0  0
  1  2  1  0
  2  3  2  0
  3  4  1  0
  4  5  2  0
  5  6  1  0
  6  7  2  0
  7  8  1  0
  8  9  1  0
  9 10  1  0
 10 11  1  0
 11 12  1  0
 12 13  1  0
  5 14  1  0
 14 15  2  0
 14 16  1  0
 16  2  1  0
  8  4  1  0
M  END
>  <zinc_id>  (92) 
ZINC000001530555

>  <smiles>  (92) 
Nc1nc2c(ncn2COCCO)c(=O)[nH]1

$$$$

     RDKit          3D

 12 12  0  0  0  0  0  0  0  0999 V2000
    1.9396   -1.8473    0.4338 Cl  0  0  0  0  0  0  0  0  0  0  0  0
    0.6539   -1.2531   -0.7645 C   0  0  1  0  0  0  0  0  0  0  0  0
   -0.4494   -0.9791    0.4028 C   0  0  2  0  0  0  0  0  0  0  0  0
   -1.2598   -2.6272    0.2429 Cl  0  0  0  0  0  0  0  0  0  0  0  0
   -1.4249   -0.1574   -0.5916 C   0  0  1  0  0  0  0  0  0  0  0  0
   -2.9455   -0.2964    0.4680 Cl  0  0  0  0  0  0  0  0  0  0  0  0
   -0.9245    1.3475   -0.2007 C   0  0  1  0  0  0  0  0  0  0  0  0
   -1.5141    1.4951    1.5591 Cl  0  0  0  0  0  0  0  0  0  0  0  0
    0.6083    1.0480    0.2553 C   0  0  2  0  0  0  0  0  0  0  0  0
    1.2999    2.6940   -0.2347 Cl  0  0  0  0  0  0  0  0  0  0  0  0
    1.1232    0.2830   -1.0799 C   0  0  1  0  0  0  0  0  0  0  0  0
    2.8934    0.2929   -0.4905 Cl  0  0  0  0  0  0  0  0  0  0  0  0
  2  1  1  1
  2  3  1  0
  3  4  1  6
  3  5  1  0
  5  6  1  1
  5  7  1  0
  7  8  1  1
  7  9  1  0
  9 10  1  6
  9 11  1  0
 11 12  1  1
 11  2  1  0
M  END
>  <zinc_id>  (93) 
ZINC000100024116

>  <smiles>  (93) 
Cl[C@H]1[C@H](Cl)[C@@H](Cl)[C@@H](Cl)[C@H](Cl)[C@H]1Cl

$$$$

     RDKit          3D

 16 17  0  0  0  0  0  0  0  0999 V2000
    0.6694   -2.2720   -1.4840 C   0  0  0  0  0  0  0  0  0  0  0  0
   -0.2491   -1.5081   -0.6038 C   0  0  0  0  0  0  0  0  0  0  0  0
   -1.5640   -1.8124   -0.6828 N   0  0  0  0  0  0  0  0  0  0  0  0
   -2.4988   -0.8994   -0.3445 C   0  0  0  0  0  0  0  0  0  0  0  0
   -3.7316   -1.1379   -0.4867 O   0  0  0  0  0  0  0  0  0  0  0  0
   -2.1680    0.3658    0.1242 C   0  0  0  0  0  0  0  0  0  0  0  0
   -3.0404    1.5026   -0.0710 C   0  0  0  0  0  0  0  0  0  0  0  0
   -3.6243    2.3991   -0.5403 N   0  0  0  0  0  0  0  0  0  0  0  0
   -0.8396    0.5150    0.5091 C   0  0  0  0  0  0  0  0  0  0  0  0
    0.1478   -0.3585    0.0680 C   0  0  0  0  0  0  0  0  0  0  0  0
    1.5303    0.0688   -0.1474 C   0  0  0  0  0  0  0  0  0  0  0  0
    1.7643    1.3211   -0.6951 C   0  0  0  0  0  0  0  0  0  0  0  0
    3.0372    1.6277   -1.1080 C   0  0  0  0  0  0  0  0  0  0  0  0
    4.0964    0.9492   -0.6358 N   0  0  0  0  0  0  0  0  0  0  0  0
    3.8687   -0.2178    0.0087 C   0  0  0  0  0  0  0  0  0  0  0  0
    2.6016   -0.5432    0.4751 C   0  0  0  0  0  0  0  0  0  0  0  0
  1  2  1  0
  2  3  1  0
  3  4  1  0
  4  5  2  0
  4  6  1  0
  6  7  1  0
  7  8  3  0
  6  9  2  0
  9 10  1  0
 10 11  1  0
 11 12  2  0
 12 13  1  0
 13 14  2  0
 14 15  1  0
 15 16  2  0
 10  2  2  0
 16 11  1  0
M  END
>  <zinc_id>  (94) 
ZINC000009224016

>  <smiles>  (94) 
Cc1[nH]c(=O)c(C#N)cc1-c1ccncc1

$$$$

     RDKit          3D

 30 31  0  0  0  0  0  0  0  0999 V2000
    7.3993    0.3752    0.3105 C   0  0  0  0  0  0  0  0  0  0  0  0
    6.8491   -0.3782   -0.5514 O   0  0  0  0  0  0  0  0  0  0  0  0
    5.5067   -0.1118   -0.7782 C   0  0  0  0  0  0  0  0  0  0  0  0
    4.8870    0.3461    0.5206 C   0  0  0  0  0  0  0  0  0  0  0  0
    3.5560   -0.0941    0.6495 O   0  0  0  0  0  0  0  0  0  0  0  0
    2.5810    0.0444   -0.3061 C   0  0  0  0  0  0  0  0  0  0  0  0
    2.9100    0.4203   -1.4451 O   0  0  0  0  0  0  0  0  0  0  0  0
    1.2516   -0.3881    0.0612 C   0  0  0  0  0  0  0  0  0  0  0  0
    0.8724   -0.7896    1.2105 C   0  0  0  0  0  0  0  0  0  0  0  0
    1.9408   -1.2564    2.1537 C   0  0  0  0  0  0  0  0  0  0  0  0
   -0.4619   -0.5980    1.6356 N   0  0  0  0  0  0  0  0  0  0  0  0
   -1.1881    0.4425    0.9944 C   0  0  0  0  0  0  0  0  0  0  0  0
   -2.2059    1.2790    1.7103 C   0  0  0  0  0  0  0  0  0  0  0  0
   -0.7402    0.9047   -0.1129 C   0  0  0  0  0  0  0  0  0  0  0  0
   -0.9420    2.2317   -0.6660 C   0  0  0  0  0  0  0  0  0  0  0  0
    0.0190    3.0562   -0.5936 O   0  0  0  0  0  0  0  0  0  0  0  0
   -2.2011    2.8174   -0.8307 O   0  0  0  0  0  0  0  0  0  0  0  0
   -2.5066    4.1231   -0.3715 C   0  0  0  0  0  0  0  0  0  0  0  0
   -3.5095    4.8249   -1.2560 C   0  0  0  0  0  0  0  0  0  0  0  0
   -1.2547    4.9307   -0.1564 C   0  0  0  0  0  0  0  0  0  0  0  0
    0.1198   -0.0988   -1.0849 C   0  0  2  0  0  0  0  0  0  0  0  0
   -0.7556   -1.4355   -0.6947 C   0  0  0  0  0  0  0  0  0  0  0  0
   -0.1490   -2.6183   -1.0438 C   0  0  0  0  0  0  0  0  0  0  0  0
   -0.9033   -3.7477   -0.7329 C   0  0  0  0  0  0  0  0  0  0  0  0
   -2.2427   -3.6309   -0.3745 C   0  0  0  0  0  0  0  0  0  0  0  0
   -2.8671   -2.4289   -0.6896 C   0  0  0  0  0  0  0  0  0  0  0  0
   -4.2166   -2.2887   -0.2308 N   0  0  0  0  0  0  0  0  0  0  0  0
   -4.4675   -1.7674    0.8698 O   0  0  0  0  0  0  0  0  0  0  0  0
   -5.1922   -2.8344   -1.0129 O   0  0  0  0  0  0  0  0  0  0  0  0
   -2.0886   -1.3293   -1.0341 C   0  0  0  0  0  0  0  0  0  0  0  0
  1  2  1  0
  2  3  1  0
  3  4  1  0
  4  5  1  0
  5  6  1  0
  6  7  2  0
  6  8  1  0
  8  9  2  0
  9 10  1  0
  9 11  1  0
 11 12  1  0
 12 13  1  0
 12 14  2  0
 14 15  1  0
 15 16  2  0
 15 17  1  0
 17 18  1  0
 18 19  1  0
 18 20  1  0
 14 21  1  0
 21 22  1  1
 22 23  2  0
 23 24  1  0
 24 25  2  0
 25 26  1  0
 26 27  1  0
 27 28  2  0
 27 29  1  0
 26 30  2  0
 21  8  1  0
 30 22  1  0
M  CHG  2  27   1  29  -1
M  END
>  <zinc_id>  (95) 
ZINC000019632713

>  <smiles>  (95) 
COCCOC(=O)C1=C(C)NC(C)=C(C(=O)OC(C)C)[C@@H]1c1cccc([N+](=O)[O-])c1

$$$$

     RDKit          3D

 50 53  0  0  0  0  0  0  0  0999 V2000
   11.1198    0.5331   -0.5029 C   0  0  0  0  0  0  0  0  0  0  0  0
   10.7385    0.9064   -0.4549 C   0  0  0  0  0  0  0  0  0  0  0  0
   10.7548    2.0002    0.6102 C   0  0  0  0  0  0  0  0  0  0  0  0
    9.2880    0.5797   -0.6539 C   0  0  0  0  0  0  0  0  0  0  0  0
    8.5657   -0.3492    0.0216 N   0  0  0  0  0  0  0  0  0  0  0  0
    7.2481   -0.0337   -0.0072 C   0  0  0  0  0  0  0  0  0  0  0  0
    6.3900   -0.2315    1.2068 C   0  0  0  0  0  0  0  0  0  0  0  0
    5.0965   -0.6687    0.7637 N   0  0  0  0  0  0  0  0  0  0  0  0
    5.0763   -1.7772   -0.1828 C   0  0  0  0  0  0  0  0  0  0  0  0
    3.9806   -0.3309    1.5848 C   0  0  0  0  0  0  0  0  0  0  0  0
    4.0018   -0.7986    2.7642 O   0  0  0  0  0  0  0  0  0  0  0  0
    3.3053    0.9293    1.4744 N   0  0  0  0  0  0  0  0  0  0  0  0
    1.8537    0.9363    2.0965 C   0  0  2  0  0  0  0  0  0  0  0  0
    1.2428    0.1303    0.8447 C   0  0  0  0  0  0  0  0  0  0  0  0
    1.6613   -1.0615    0.7233 O   0  0  0  0  0  0  0  0  0  0  0  0
   -0.1450    0.1674    0.8277 N   0  0  0  0  0  0  0  0  0  0  0  0
   -0.9105   -0.4546   -0.3942 C   0  0  1  0  0  0  0  0  0  0  0  0
    0.4148   -0.7757   -1.3190 C   0  0  0  0  0  0  0  0  0  0  0  0
    0.2394    0.1677   -2.4372 C   0  0  0  0  0  0  0  0  0  0  0  0
    0.2362   -0.1769   -3.7601 C   0  0  0  0  0  0  0  0  0  0  0  0
   -0.2373    0.7331   -4.6900 C   0  0  0  0  0  0  0  0  0  0  0  0
   -0.5655    2.0246   -4.2970 C   0  0  0  0  0  0  0  0  0  0  0  0
   -0.0968    2.4479   -3.0608 C   0  0  0  0  0  0  0  0  0  0  0  0
    0.0209    1.4951   -2.0866 C   0  0  0  0  0  0  0  0  0  0  0  0
   -0.8949   -1.9752    0.2240 C   0  0  0  0  0  0  0  0  0  0  0  0
   -2.3502   -2.5578   -0.2630 C   0  0  2  0  0  0  0  0  0  0  0  0
   -2.2806   -1.9493   -1.6426 O   0  0  0  0  0  0  0  0  0  0  0  0
   -3.1593   -1.1860    0.3770 C   0  0  2  0  0  0  0  0  0  0  0  0
   -3.6016   -2.0228    1.6962 C   0  0  0  0  0  0  0  0  0  0  0  0
   -4.5443   -3.0600    1.3868 C   0  0  0  0  0  0  0  0  0  0  0  0
   -5.3673   -3.4185    2.4540 C   0  0  0  0  0  0  0  0  0  0  0  0
   -6.4062   -4.3258    2.2948 C   0  0  0  0  0  0  0  0  0  0  0  0
   -6.7430   -4.6585    0.9874 C   0  0  0  0  0  0  0  0  0  0  0  0
   -5.7780   -4.4856    0.0026 C   0  0  0  0  0  0  0  0  0  0  0  0
   -4.5364   -3.9821    0.3745 C   0  0  0  0  0  0  0  0  0  0  0  0
   -4.4696   -1.4670   -0.4284 N   0  0  0  0  0  0  0  0  0  0  0  0
   -5.2340   -0.2803   -0.6352 C   0  0  0  0  0  0  0  0  0  0  0  0
   -4.6580    0.7632   -0.9969 O   0  0  0  0  0  0  0  0  0  0  0  0
   -6.5559   -0.1110   -0.3758 O   0  0  0  0  0  0  0  0  0  0  0  0
   -7.3579    0.9253   -0.1645 C   0  0  0  0  0  0  0  0  0  0  0  0
   -7.0052    2.3029   -0.0660 C   0  0  0  0  0  0  0  0  0  0  0  0
   -6.3289    3.2404   -0.7865 C   0  0  0  0  0  0  0  0  0  0  0  0
   -6.9847    4.3582   -1.0175 N   0  0  0  0  0  0  0  0  0  0  0  0
   -7.5745    4.8624    0.0971 C   0  0  0  0  0  0  0  0  0  0  0  0
   -8.0254    3.3709    0.8281 S   0  0  0  0  0  0  0  0  0  0  0  0
    1.4816    2.3992    1.4430 C   0  0  0  0  0  0  0  0  0  0  0  0
    1.9739    3.4350    2.4064 C   0  0  0  0  0  0  0  0  0  0  0  0
    2.0382    2.4700    0.0811 C   0  0  0  0  0  0  0  0  0  0  0  0
    6.8297    0.1362   -1.3243 C   0  0  0  0  0  0  0  0  0  0  0  0
    8.2534    0.8236   -2.0018 S   0  0  0  0  0  0  0  0  0  0  0  0
  1  2  1  0
  2  3  1  0
  2  4  1  0
  4  5  2  0
  5  6  1  0
  6  7  1  0
  7  8  1  0
  8  9  1  0
  8 10  1  0
 10 11  2  0
 10 12  1  0
 13 12  1  6
 13 14  1  0
 14 15  2  0
 14 16  1  0
 17 16  1  1
 17 18  1  0
 18 19  1  0
 19 20  2  0
 20 21  1  0
 21 22  2  0
 22 23  1  0
 23 24  2  0
 17 25  1  0
 26 25  1  1
 26 27  1  0
 26 28  1  0
 28 29  1  1
 29 30  1  0
 30 31  2  0
 31 32  1  0
 32 33  2  0
 33 34  1  0
 34 35  2  0
 28 36  1  0
 36 37  1  0
 37 38  2  0
 37 39  1  0
 39 40  1  0
 40 41  1  0
 41 42  2  0
 42 43  1  0
 43 44  2  0
 44 45  1  0
 13 46  1  0
 46 47  1  0
 46 48  1  0
  6 49  2  0
 49 50  1  0
 50  4  1  0
 24 19  1  0
 35 30  1  0
 45 41  1  0
M  END
>  <zinc_id>  (96) 
ZINC000003944422

>  <smiles>  (96) 
CC(C)c1nc(CN(C)C(=O)N[C@H](C(=O)N[C@@H](Cc2ccccc2)C[C@H](O)[C@H](Cc2ccccc2)NC(=O)OCc2cncs2)C(C)C)cs1

$$$$

     RDKit          3D

 11 11  0  0  0  0  0  0  0  0999 V2000
   -3.1059   -1.1273   -0.1548 C   0  0  0  0  0  0  0  0  0  0  0  0
   -2.0795   -0.0097   -0.0391 C   0  0  0  0  0  0  0  0  0  0  0  0
   -1.6688    0.0973    1.4248 C   0  0  0  0  0  0  0  0  0  0  0  0
   -2.7552    1.2092   -0.4593 N   0  0  0  0  0  0  0  0  0  0  0  0
   -0.9037   -0.2160   -0.9300 C   0  0  0  0  0  0  0  0  0  0  0  0
    0.4008   -0.2473   -0.1986 C   0  0  0  0  0  0  0  0  0  0  0  0
    0.8012    0.8795    0.5125 C   0  0  0  0  0  0  0  0  0  0  0  0
    2.1272    0.9804    0.9107 C   0  0  0  0  0  0  0  0  0  0  0  0
    3.0395    0.0335    0.4925 C   0  0  0  0  0  0  0  0  0  0  0  0
    2.7348   -0.7477   -0.6150 C   0  0  0  0  0  0  0  0  0  0  0  0
    1.4097   -0.8520   -0.9438 C   0  0  0  0  0  0  0  0  0  0  0  0
  1  2  1  0
  2  3  1  0
  2  4  1  0
  2  5  1  0
  5  6  1  0
  6  7  2  0
  7  8  1  0
  8  9  2  0
  9 10  1  0
 10 11  2  0
 11  6  1  0
M  END
>  <zinc_id>  (97) 
ZINC000008403947

>  <smiles>  (97) 
CC(C)(N)Cc1ccccc1

$$$$

     RDKit          3D

 43 50  0  0  0  0  0  0  0  0999 V2000
   -2.5660    1.8064    1.7638 C   0  0  0  0  0  0  0  0  0  0  0  0
   -2.6837    0.7577    1.4866 N   0  0  0  0  0  0  0  0  0  0  0  0
   -3.0743   -0.3090    2.2487 C   0  0  0  0  0  0  0  0  0  0  0  0
   -2.6359   -1.7394    1.5530 C   0  0  2  0  0  0  0  0  0  0  0  0
   -1.5696   -1.0801    0.5189 C   0  0  0  0  0  0  0  0  0  0  0  0
   -1.3202   -1.9857   -0.3337 O   0  0  0  0  0  0  0  0  0  0  0  0
   -0.4154   -0.5259    1.1669 N   0  0  0  0  0  0  0  0  0  0  0  0
    0.8380   -0.6824    0.5625 C   0  0  2  0  0  0  0  0  0  0  0  0
    0.7021   -1.2099   -0.8631 C   0  0  0  0  0  0  0  0  0  0  0  0
    1.7311   -1.4127    1.3194 O   0  0  0  0  0  0  0  0  0  0  0  0
    3.0028   -1.2782    0.7809 C   0  0  1  0  0  0  0  0  0  0  0  0
    4.0057   -1.4815    1.6666 O   0  0  0  0  0  0  0  0  0  0  0  0
    2.8983   -2.5668   -0.2411 C   0  0  2  0  0  0  0  0  0  0  0  0
    3.7767   -3.5998    0.7108 C   0  0  0  0  0  0  0  0  0  0  0  0
    4.2632   -4.4080   -0.4485 C   0  0  0  0  0  0  0  0  0  0  0  0
    4.4362   -3.4696   -1.6082 C   0  0  0  0  0  0  0  0  0  0  0  0
    4.1941   -2.1345   -1.0477 N   0  0  0  0  0  0  0  0  0  0  0  0
    4.1048   -0.9500   -1.7603 C   0  0  0  0  0  0  0  0  0  0  0  0
    3.9417   -0.7575   -2.9816 O   0  0  0  0  0  0  0  0  0  0  0  0
    4.0006    0.4416   -0.9175 C   0  0  2  0  0  0  0  0  0  0  0  0
    5.2786    0.0376    0.0693 C   0  0  0  0  0  0  0  0  0  0  0  0
    6.0319    1.3322    0.0115 C   0  0  0  0  0  0  0  0  0  0  0  0
    5.6378    2.2842    0.9367 C   0  0  0  0  0  0  0  0  0  0  0  0
    5.9416    3.6329    0.8013 C   0  0  0  0  0  0  0  0  0  0  0  0
    6.6095    4.0726   -0.3223 C   0  0  0  0  0  0  0  0  0  0  0  0
    7.0343    3.1157   -1.2345 C   0  0  0  0  0  0  0  0  0  0  0  0
    6.7078    1.7689   -1.0898 C   0  0  0  0  0  0  0  0  0  0  0  0
    2.9152   -0.1026    0.0864 N   0  0  0  0  0  0  0  0  0  0  0  0
    1.6791    0.5478    0.4300 C   0  0  0  0  0  0  0  0  0  0  0  0
    1.3871    1.7540    0.3787 O   0  0  0  0  0  0  0  0  0  0  0  0
   -3.8450   -1.6572    0.4695 C   0  0  0  0  0  0  0  0  0  0  0  0
   -4.3946   -0.4432    0.4040 C   0  0  0  0  0  0  0  0  0  0  0  0
   -5.7622   -0.1666    0.1531 C   0  0  0  0  0  0  0  0  0  0  0  0
   -6.6891   -1.1570    0.3365 C   0  0  0  0  0  0  0  0  0  0  0  0
   -8.0220   -0.7880    0.1908 C   0  0  0  0  0  0  0  0  0  0  0  0
   -8.4236    0.3224   -0.5426 C   0  0  0  0  0  0  0  0  0  0  0  0
   -7.3990    1.1895   -0.9054 C   0  0  0  0  0  0  0  0  0  0  0  0
   -7.3773    2.5047   -1.2387 N   0  0  0  0  0  0  0  0  0  0  0  0
   -6.0955    2.9530   -1.2169 C   0  0  0  0  0  0  0  0  0  0  0  0
   -5.2487    1.9248   -0.8206 C   0  0  0  0  0  0  0  0  0  0  0  0
   -6.0751    0.8108   -0.7848 C   0  0  0  0  0  0  0  0  0  0  0  0
   -4.2486    1.9808    0.2985 C   0  0  0  0  0  0  0  0  0  0  0  0
   -3.2722    0.6680    0.0130 C   0  0  1  0  0  0  0  0  0  0  0  0
  1  2  1  0
  2  3  1  0
  3  4  1  0
  4  5  1  6
  5  6  2  0
  5  7  1  0
  8  7  1  1
  8  9  1  0
  8 10  1  0
 10 11  1  0
 11 12  1  1
 11 13  1  0
 13 14  1  1
 14 15  1  0
 15 16  1  0
 16 17  1  0
 17 18  1  0
 18 19  2  0
 18 20  1  0
 20 21  1  1
 21 22  1  0
 22 23  2  0
 23 24  1  0
 24 25  2  0
 25 26  1  0
 26 27  2  0
 20 28  1  0
 28 29  1  0
 29 30  2  0
  4 31  1  0
 31 32  2  0
 32 33  1  0
 33 34  2  0
 34 35  1  0
 35 36  2  0
 36 37  1  0
 37 38  1  0
 38 39  1  0
 39 40  2  0
 40 41  1  0
 40 42  1  0
 43 42  1  1
 43  2  1  0
 29  8  1  0
 43 32  1  0
 28 11  1  0
 41 33  1  0
 17 13  1  0
 27 22  1  0
 41 37  2  0
M  END
>  <zinc_id>  (98) 
ZINC000052955754

>  <smiles>  (98) 
CN1C[C@H](C(=O)N[C@]2(C)O[C@@]3(O)[C@@H]4CCCN4C(=O)[C@H](Cc4ccccc4)N3C2=O)C=C2c3cccc4[nH]cc(c34)C[C@H]21

$$$$

     RDKit          3D

 23 26  0  0  0  0  0  0  0  0999 V2000
   -4.9341    0.0155   -2.3541 C   0  0  0  0  0  0  0  0  0  0  0  0
   -4.3677    0.0672   -1.4389 C   0  0  0  0  0  0  0  0  0  0  0  0
   -3.7897    0.1209   -0.1041 C   0  0  2  0  0  0  0  0  0  0  0  0
   -4.5951   -0.5286    0.8400 O   0  0  0  0  0  0  0  0  0  0  0  0
   -3.7344    1.5875    0.3209 C   0  0  0  0  0  0  0  0  0  0  0  0
   -2.2718    1.8572    0.6719 C   0  0  0  0  0  0  0  0  0  0  0  0
   -1.7010    1.0080   -0.5899 C   0  0  1  0  0  0  0  0  0  0  0  0
   -0.2278    0.6757    0.1626 C   0  0  2  0  0  0  0  0  0  0  0  0
    0.4546    1.9846   -0.4557 C   0  0  0  0  0  0  0  0  0  0  0  0
    1.6468    1.6913   -1.2430 C   0  0  0  0  0  0  0  0  0  0  0  0
    2.4384    0.5141   -0.8526 C   0  0  0  0  0  0  0  0  0  0  0  0
    3.7541    0.5178   -0.4867 C   0  0  0  0  0  0  0  0  0  0  0  0
    4.3036   -0.6492    0.0319 C   0  0  0  0  0  0  0  0  0  0  0  0
    5.5341   -0.5205    0.6678 O   0  0  0  0  0  0  0  0  0  0  0  0
    6.6867   -0.0023    0.0385 C   0  0  0  0  0  0  0  0  0  0  0  0
    3.5092   -1.7842    0.1501 C   0  0  0  0  0  0  0  0  0  0  0  0
    2.2130   -1.7960   -0.3682 C   0  0  0  0  0  0  0  0  0  0  0  0
    1.6613   -0.5705   -0.4565 C   0  0  0  0  0  0  0  0  0  0  0  0
    0.2207   -0.3550   -1.1037 C   0  0  1  0  0  0  0  0  0  0  0  0
   -0.4416   -1.6506   -0.3641 C   0  0  0  0  0  0  0  0  0  0  0  0
   -1.9162   -1.4875   -0.7411 C   0  0  0  0  0  0  0  0  0  0  0  0
   -2.3970   -0.3252    0.0178 C   0  0  2  0  0  0  0  0  0  0  0  0
   -2.0461   -0.3702    1.4898 C   0  0  0  0  0  0  0  0  0  0  0  0
  1  2  3  0
  3  2  1  6
  3  4  1  0
  3  5  1  0
  5  6  1  0
  7  6  1  1
  7  8  1  0
  8  9  1  6
  9 10  1  0
 10 11  1  0
 11 12  2  0
 12 13  1  0
 13 14  1  0
 14 15  1  0
 13 16  2  0
 16 17  1  0
 17 18  2  0
 19 18  1  1
 19 20  1  0
 20 21  1  0
 21 22  1  0
 22 23  1  1
 22  3  1  0
 22  7  1  0
 19  8  1  0
 18 11  1  0
M  END
>  <zinc_id>  (99) 
ZINC000003815424

>  <smiles>  (99) 
C#C[C@]1(O)CC[C@H]2[C@@H]3CCc4cc(OC)ccc4[C@H]3CC[C@@]21C

$$$$

     RDKit          3D

 41 46  0  0  0  0  0  0  0  0999 V2000
   -5.0600   -3.7964    0.8301 C   0  0  0  0  0  0  0  0  0  0  0  0
   -4.6583   -2.8298   -0.2042 C   0  0  0  0  0  0  0  0  0  0  0  0
   -4.8239   -3.0620   -1.4323 O   0  0  0  0  0  0  0  0  0  0  0  0
   -4.3307   -1.5746    0.2021 O   0  0  0  0  0  0  0  0  0  0  0  0
   -3.9205   -0.5740   -0.9215 C   0  0  1  0  0  0  0  0  0  0  0  0
   -3.8828    0.7768    0.1913 C   0  0  1  0  0  0  0  0  0  0  0  0
   -5.3317    0.5447    0.7558 N   0  0  0  0  0  0  0  0  0  0  0  0
   -5.3120   -0.0803    1.9871 C   0  0  0  0  0  0  0  0  0  0  0  0
   -6.1601    0.0784   -0.2860 C   0  0  0  0  0  0  0  0  0  0  0  0
   -7.4951    0.7711   -0.4077 C   0  0  0  0  0  0  0  0  0  0  0  0
   -7.3319    2.1981   -0.9299 C   0  0  0  0  0  0  0  0  0  0  0  0
   -5.9227    2.5739   -0.4768 C   0  0  0  0  0  0  0  0  0  0  0  0
   -5.7085    1.9572    0.9035 C   0  0  0  0  0  0  0  0  0  0  0  0
   -3.0310   -0.1229    1.3012 C   0  0  0  0  0  0  0  0  0  0  0  0
   -1.9225    0.3859    0.1989 C   0  0  1  0  0  0  0  0  0  0  0  0
   -0.5774   -0.4900    0.7706 C   0  0  2  0  0  0  0  0  0  0  0  0
   -0.1626    0.5447    1.9359 C   0  0  0  0  0  0  0  0  0  0  0  0
    1.0848   -0.2880    2.2629 C   0  0  0  0  0  0  0  0  0  0  0  0
    2.1680    0.5013    1.2922 C   0  0  1  0  0  0  0  0  0  0  0  0
    3.3576   -0.5861    1.6514 C   0  0  0  0  0  0  0  0  0  0  0  0
    4.2205   -0.6525    0.2435 C   0  0  2  0  0  0  0  0  0  0  0  0
    5.5291   -0.2487    0.9745 O   0  0  0  0  0  0  0  0  0  0  0  0
    6.3214   -1.3942    1.1205 C   0  0  0  0  0  0  0  0  0  0  0  0
    7.3810   -1.5367    2.1542 C   0  0  0  0  0  0  0  0  0  0  0  0
    6.2758   -2.3405    0.2767 O   0  0  0  0  0  0  0  0  0  0  0  0
    3.8415    0.9911   -0.1967 C   0  0  1  0  0  0  0  0  0  0  0  0
    4.8060    1.0022   -1.4376 N   0  0  0  0  0  0  0  0  0  0  0  0
    4.6309   -0.1866   -2.1450 C   0  0  0  0  0  0  0  0  0  0  0  0
    4.2865    2.1806   -2.1302 C   0  0  0  0  0  0  0  0  0  0  0  0
    3.9981    3.2715   -1.1250 C   0  0  0  0  0  0  0  0  0  0  0  0
    5.0417    3.4012   -0.0590 C   0  0  0  0  0  0  0  0  0  0  0  0
    6.2993    2.6457   -0.3585 C   0  0  0  0  0  0  0  0  0  0  0  0
    6.1101    1.2957   -0.9457 C   0  0  0  0  0  0  0  0  0  0  0  0
    2.5763    0.4234   -1.0932 C   0  0  0  0  0  0  0  0  0  0  0  0
    1.7452   -0.2946   -0.0885 C   0  0  1  0  0  0  0  0  0  0  0  0
    1.7055   -1.6719    0.0780 C   0  0  0  0  0  0  0  0  0  0  0  0
    0.2958    0.3783   -0.4166 C   0  0  1  0  0  0  0  0  0  0  0  0
   -0.1026   -0.7382   -1.5538 C   0  0  0  0  0  0  0  0  0  0  0  0
   -1.5583   -0.4416   -1.9352 C   0  0  0  0  0  0  0  0  0  0  0  0
   -2.3219   -0.8698   -0.7615 C   0  0  2  0  0  0  0  0  0  0  0  0
   -2.0603   -2.1422   -0.1574 C   0  0  0  0  0  0  0  0  0  0  0  0
  1  2  1  0
  2  3  2  0
  2  4  1  0
  5  4  1  1
  5  6  1  0
  6  7  1  1
  7  8  1  0
  7  9  1  0
  9 10  1  0
 10 11  1  0
 11 12  1  0
 12 13  1  0
  6 14  1  0
 15 14  1  1
 15 16  1  0
 16 17  1  1
 17 18  1  0
 19 18  1  1
 19 20  1  0
 20 21  1  0
 21 22  1  1
 22 23  1  0
 23 24  1  0
 23 25  2  0
 21 26  1  0
 26 27  1  6
 27 28  1  0
 27 29  1  0
 29 30  1  0
 30 31  1  0
 31 32  1  0
 32 33  1  0
 26 34  1  0
 34 35  1  0
 35 36  1  1
 35 37  1  0
 37 38  1  6
 38 39  1  0
 39 40  1  0
 40 41  1  1
 40  5  1  0
 13  7  1  0
 40 15  1  0
 37 16  1  0
 35 19  1  0
 33 27  1  0
M  CHG  2   7   1  27   1
M  END
>  <zinc_id>  (100) 
ZINC000004097383

>  <smiles>  (100) 
CC(=O)O[C@H]1C[C@@H]2CC[C@@H]3[C@H](CC[C@@]4(C)[C@H]3C[C@H]([N+]3(C)CCCCC3)[C@@H]4OC(C)=O)[C@@]2(C)C[C@@H]1[N+]1(C)CCCCC1

$$$$

     RDKit          3D

 19 21  0  0  0  0  0  0  0  0999 V2000
    6.0073   -0.3658    0.3820 C   0  0  0  0  0  0  0  0  0  0  0  0
    5.6933   -0.1887    0.7854 C   0  0  0  0  0  0  0  0  0  0  0  0
    4.2428    0.0356    1.0739 C   0  0  0  0  0  0  0  0  0  0  0  0
    3.8282    1.0153    1.7578 O   0  0  0  0  0  0  0  0  0  0  0  0
    3.2105   -0.7628    0.4868 N   0  0  0  0  0  0  0  0  0  0  0  0
    2.1867   -0.1074   -0.2784 C   0  0  0  0  0  0  0  0  0  0  0  0
    0.8266   -0.1457    0.3410 C   0  0  0  0  0  0  0  0  0  0  0  0
    0.0410   -1.3655   -0.4156 C   0  0  2  0  0  0  0  0  0  0  0  0
    0.3813   -0.7842   -1.9029 C   0  0  0  0  0  0  0  0  0  0  0  0
    0.0723    0.6671   -1.7584 C   0  0  0  0  0  0  0  0  0  0  0  0
   -1.1212    0.6527   -0.8748 C   0  0  0  0  0  0  0  0  0  0  0  0
   -2.2479    1.4553   -1.0357 C   0  0  0  0  0  0  0  0  0  0  0  0
   -3.5228    0.9839   -0.7448 C   0  0  0  0  0  0  0  0  0  0  0  0
   -3.6252   -0.1656    0.0293 C   0  0  0  0  0  0  0  0  0  0  0  0
   -2.5076   -0.9617    0.2530 C   0  0  0  0  0  0  0  0  0  0  0  0
   -1.3585   -0.5918   -0.3840 C   0  0  0  0  0  0  0  0  0  0  0  0
   -2.9563   -2.2785    0.7753 C   0  0  0  0  0  0  0  0  0  0  0  0
   -4.4680   -2.1536    0.8005 C   0  0  0  0  0  0  0  0  0  0  0  0
   -4.6823   -0.7581    0.7096 O   0  0  0  0  0  0  0  0  0  0  0  0
  1  2  1  0
  2  3  1  0
  3  4  2  0
  3  5  1  0
  5  6  1  0
  6  7  1  0
  8  7  1  1
  8  9  1  0
  9 10  1  0
 10 11  1  0
 11 12  2  0
 12 13  1  0
 13 14  2  0
 14 15  1  0
 15 16  2  0
 15 17  1  0
 17 18  1  0
 18 19  1  0
 16  8  1  0
 16 11  1  0
 19 14  1  0
M  END
>  <zinc_id>  (101) 
ZINC000003960338

>  <smiles>  (101) 
CCC(=O)NCC[C@@H]1CCc2ccc3c(c21)CCO3

$$$$

     RDKit          3D

 17 18  0  0  0  0  0  0  0  0999 V2000
   -3.8734   -0.1227   -0.9349 N   0  0  0  0  0  0  0  0  0  0  0  0
   -3.3043    0.4052    0.2648 C   0  0  0  0  0  0  0  0  0  0  0  0
   -2.5400    1.5271    0.1461 N   0  0  0  0  0  0  0  0  0  0  0  0
   -1.2337    1.5289    0.5367 C   0  0  0  0  0  0  0  0  0  0  0  0
   -0.6179    0.4173    1.0335 N   0  0  0  0  0  0  0  0  0  0  0  0
    0.3078   -0.2735   -0.0925 C   0  0  2  0  0  0  0  0  0  0  0  0
    1.4947   -0.5528    0.8419 O   0  0  0  0  0  0  0  0  0  0  0  0
    2.0779   -1.2164   -0.3923 C   0  0  2  0  0  0  0  0  0  0  0  0
    3.6328   -1.0996    0.1780 C   0  0  0  0  0  0  0  0  0  0  0  0
    4.3994   -1.0954   -0.9983 O   0  0  0  0  0  0  0  0  0  0  0  0
    2.2700    0.2363   -1.3097 C   0  0  1  0  0  0  0  0  0  0  0  0
    1.2000   -0.2480   -2.2643 O   0  0  0  0  0  0  0  0  0  0  0  0
    1.2072    1.1821   -0.3574 C   0  0  1  0  0  0  0  0  0  0  0  0
    0.3398    1.6811   -1.4922 O   0  0  0  0  0  0  0  0  0  0  0  0
   -1.5180   -0.4525    1.5676 C   0  0  0  0  0  0  0  0  0  0  0  0
   -0.9913   -1.5361    1.9975 O   0  0  0  0  0  0  0  0  0  0  0  0
   -2.8511   -0.3811    1.2756 N   0  0  0  0  0  0  0  0  0  0  0  0
  1  2  1  0
  2  3  1  0
  3  4  2  0
  4  5  1  0
  6  5  1  1
  6  7  1  0
  7  8  1  0
  8  9  1  1
  9 10  1  0
  8 11  1  0
 11 12  1  6
 11 13  1  0
 13 14  1  6
  5 15  1  0
 15 16  2  0
 15 17  1  0
 17  2  2  0
 13  6  1  0
M  END
>  <zinc_id>  (102) 
ZINC000003861768

>  <smiles>  (102) 
Nc1ncn([C@@H]2O[C@H](CO)[C@@H](O)[C@H]2O)c(=O)n1

$$$$

     RDKit          3D

 25 27  0  0  0  0  0  0  0  0999 V2000
    2.0140   -2.4113    0.4750 F   0  0  0  0  0  0  0  0  0  0  0  0
    2.9172   -1.4299    0.2410 C   0  0  0  0  0  0  0  0  0  0  0  0
    3.9475   -1.6544   -0.6308 C   0  0  0  0  0  0  0  0  0  0  0  0
    4.7881   -0.6045   -0.9709 C   0  0  0  0  0  0  0  0  0  0  0  0
    4.7514    0.5449   -0.2153 C   0  0  0  0  0  0  0  0  0  0  0  0
    3.5755    0.8484    0.4514 C   0  0  0  0  0  0  0  0  0  0  0  0
    2.6541   -0.1377    0.6804 C   0  0  0  0  0  0  0  0  0  0  0  0
    1.2721    0.1389    1.0923 C   0  0  0  0  0  0  0  0  0  0  0  0
    0.7973   -0.6500    2.0116 N   0  0  0  0  0  0  0  0  0  0  0  0
   -0.4476   -0.5972    2.7270 C   0  0  0  0  0  0  0  0  0  0  0  0
   -1.6390   -0.7470    1.8339 C   0  0  0  0  0  0  0  0  0  0  0  0
   -3.0171   -0.8388    2.7287 S   0  0  0  0  0  0  0  0  0  0  0  0
   -1.8510   -0.3131    0.4844 N   0  0  0  0  0  0  0  0  0  0  0  0
   -3.2036    0.0886    0.1858 C   0  0  0  0  0  0  0  0  0  0  0  0
   -3.9599   -0.9337   -0.6192 C   0  0  0  0  0  0  0  0  0  0  0  0
   -5.0982   -0.2970   -1.0983 F   0  0  0  0  0  0  0  0  0  0  0  0
   -3.2630   -1.4055   -1.7000 F   0  0  0  0  0  0  0  0  0  0  0  0
   -4.3821   -2.0030    0.1254 F   0  0  0  0  0  0  0  0  0  0  0  0
   -0.8921    0.4102   -0.2990 C   0  0  0  0  0  0  0  0  0  0  0  0
   -1.4786    1.1544   -1.3170 C   0  0  0  0  0  0  0  0  0  0  0  0
   -0.7487    2.0997   -2.0257 C   0  0  0  0  0  0  0  0  0  0  0  0
    0.5023    2.4636   -1.5433 C   0  0  0  0  0  0  0  0  0  0  0  0
    1.1112    4.0887   -1.8397 Cl  0  0  0  0  0  0  0  0  0  0  0  0
    1.1952    1.5562   -0.7509 C   0  0  0  0  0  0  0  0  0  0  0  0
    0.4549    0.6297   -0.0269 C   0  0  0  0  0  0  0  0  0  0  0  0
  1  2  1  0
  2  3  2  0
  3  4  1  0
  4  5  2  0
  5  6  1  0
  6  7  2  0
  7  8  1  0
  8  9  2  0
  9 10  1  0
 10 11  1  0
 11 12  2  0
 11 13  1  0
 13 14  1  0
 14 15  1  0
 15 16  1  0
 15 17  1  0
 15 18  1  0
 13 19  1  0
 19 20  2  0
 20 21  1  0
 21 22  2  0
 22 23  1  0
 22 24  1  0
 24 25  2  0
  7  2  1  0
 25  8  1  0
 25 19  1  0
M  END
>  <zinc_id>  (103) 
ZINC000000538266

>  <smiles>  (103) 
Fc1ccccc1C1=NCC(=S)N(CC(F)(F)F)c2ccc(Cl)cc21

$$$$

     RDKit          3D

 67 72  0  0  0  0  0  0  0  0999 V2000
   -9.0334    5.9476    1.3422 C   0  0  0  0  0  0  0  0  0  0  0  0
   -9.3806    5.3339    0.5961 O   0  0  0  0  0  0  0  0  0  0  0  0
   -9.1464    3.9808    0.3972 C   0  0  0  0  0  0  0  0  0  0  0  0
   -8.8135    3.2392    1.5120 C   0  0  0  0  0  0  0  0  0  0  0  0
   -8.5637    1.9036    1.3426 C   0  0  0  0  0  0  0  0  0  0  0  0
   -8.4231    1.3110    0.0927 C   0  0  0  0  0  0  0  0  0  0  0  0
   -8.4288   -0.1815    0.0955 C   0  0  0  0  0  0  0  0  0  0  0  0
   -7.4939   -0.5924   -1.1969 C   0  0  2  0  0  0  0  0  0  0  0  0
   -7.5201   -2.1584   -0.8188 C   0  0  0  0  0  0  0  0  0  0  0  0
   -8.6729   -2.7986   -1.2673 C   0  0  0  0  0  0  0  0  0  0  0  0
   -8.9024   -4.1101   -0.8744 C   0  0  0  0  0  0  0  0  0  0  0  0
  -10.1326   -4.7373   -1.0263 O   0  0  0  0  0  0  0  0  0  0  0  0
  -10.7599   -5.4193    0.0454 C   0  0  0  0  0  0  0  0  0  0  0  0
   -7.8966   -4.7589   -0.1709 C   0  0  0  0  0  0  0  0  0  0  0  0
   -7.9173   -6.1359    0.0403 O   0  0  0  0  0  0  0  0  0  0  0  0
   -7.3239   -6.9972   -0.9120 C   0  0  0  0  0  0  0  0  0  0  0  0
   -6.9417   -3.9733    0.4650 C   0  0  0  0  0  0  0  0  0  0  0  0
   -7.0296   -2.5860    0.3513 C   0  0  0  0  0  0  0  0  0  0  0  0
   -6.2623   -1.8354    1.3565 C   0  0  0  0  0  0  0  0  0  0  0  0
   -6.2433   -0.4097    0.9052 C   0  0  0  0  0  0  0  0  0  0  0  0
   -6.1261   -0.3133   -0.4686 N   0  0  1  0  0  0  0  0  0  0  0  0
   -5.2402   -1.2273   -1.1322 C   0  0  0  0  0  0  0  0  0  0  0  0
   -5.8480    1.0073   -0.9605 C   0  0  0  0  0  0  0  0  0  0  0  0
   -4.5812    1.6199   -0.5199 C   0  0  0  0  0  0  0  0  0  0  0  0
   -3.3790    0.7767   -0.6200 C   0  0  0  0  0  0  0  0  0  0  0  0
   -2.7530    0.5423   -1.6981 O   0  0  0  0  0  0  0  0  0  0  0  0
   -2.4970    0.5973    0.4545 O   0  0  0  0  0  0  0  0  0  0  0  0
   -1.9927   -0.5988    0.7765 C   0  0  0  0  0  0  0  0  0  0  0  0
   -0.9250   -1.2948    0.1033 C   0  0  0  0  0  0  0  0  0  0  0  0
    0.0067   -1.7891    1.2117 C   0  0  0  0  0  0  0  0  0  0  0  0
    1.2374   -2.4163    0.6295 C   0  0  0  0  0  0  0  0  0  0  0  0
    2.3806   -1.4884    0.9043 C   0  0  0  0  0  0  0  0  0  0  0  0
    2.6652   -0.8057   -0.3157 O   0  0  0  0  0  0  0  0  0  0  0  0
    2.2703    0.5153   -0.5517 C   0  0  0  0  0  0  0  0  0  0  0  0
    1.7092    1.0997    0.4256 O   0  0  0  0  0  0  0  0  0  0  0  0
    3.1815    1.4369   -1.3136 C   0  0  0  0  0  0  0  0  0  0  0  0
    4.5350    1.1456   -0.8195 C   0  0  0  0  0  0  0  0  0  0  0  0
    5.4202    2.2346   -0.5632 N   0  0  2  0  0  0  0  0  0  0  0  0
    4.9240    3.2937    0.2376 C   0  0  0  0  0  0  0  0  0  0  0  0
    5.9641    2.5453   -1.8090 C   0  0  0  0  0  0  0  0  0  0  0  0
    6.9461    3.6830   -1.7269 C   0  0  0  0  0  0  0  0  0  0  0  0
    8.0163    2.9983   -0.9257 C   0  0  0  0  0  0  0  0  0  0  0  0
    9.2865    3.5263   -1.1259 C   0  0  0  0  0  0  0  0  0  0  0  0
   10.2621    3.0279   -0.2690 C   0  0  0  0  0  0  0  0  0  0  0  0
   11.5790    2.8195   -0.6789 O   0  0  0  0  0  0  0  0  0  0  0  0
   12.2236    1.5795   -0.5299 C   0  0  0  0  0  0  0  0  0  0  0  0
    9.8881    2.7418    1.0271 C   0  0  0  0  0  0  0  0  0  0  0  0
   10.7920    2.9657    2.0393 O   0  0  0  0  0  0  0  0  0  0  0  0
   11.5640    4.1413    2.1843 C   0  0  0  0  0  0  0  0  0  0  0  0
    8.5988    2.2719    1.2184 C   0  0  0  0  0  0  0  0  0  0  0  0
    7.6313    2.4862    0.2392 C   0  0  0  0  0  0  0  0  0  0  0  0
    6.4348    1.4142    0.3232 C   0  0  2  0  0  0  0  0  0  0  0  0
    6.9594    0.5233   -0.9587 C   0  0  0  0  0  0  0  0  0  0  0  0
    7.0862   -0.8611   -0.4395 C   0  0  0  0  0  0  0  0  0  0  0  0
    6.1672   -1.8543   -0.6927 C   0  0  0  0  0  0  0  0  0  0  0  0
    6.5495   -3.1676   -0.9328 C   0  0  0  0  0  0  0  0  0  0  0  0
    7.8224   -3.5404   -0.5764 C   0  0  0  0  0  0  0  0  0  0  0  0
    8.2849   -4.7986   -0.9110 O   0  0  0  0  0  0  0  0  0  0  0  0
    8.0443   -5.9639   -0.1642 C   0  0  0  0  0  0  0  0  0  0  0  0
    8.7661   -2.5943   -0.2284 C   0  0  0  0  0  0  0  0  0  0  0  0
   10.0843   -2.9684   -0.0086 O   0  0  0  0  0  0  0  0  0  0  0  0
   10.7127   -3.9879   -0.7496 C   0  0  0  0  0  0  0  0  0  0  0  0
    8.3403   -1.2895   -0.0208 C   0  0  0  0  0  0  0  0  0  0  0  0
   -8.9776    2.0421   -0.9514 C   0  0  0  0  0  0  0  0  0  0  0  0
   -9.0739    3.4254   -0.8741 C   0  0  0  0  0  0  0  0  0  0  0  0
   -9.5723    4.2032   -1.9059 O   0  0  0  0  0  0  0  0  0  0  0  0
  -10.4824    5.2733   -1.7033 C   0  0  0  0  0  0  0  0  0  0  0  0
  1  2  1  0
  2  3  1  0
  3  4  2  0
  4  5  1  0
  5  6  2  0
  6  7  1  0
  8  7  1  1
  8  9  1  0
  9 10  2  0
 10 11  1  0
 11 12  1  0
 12 13  1  0
 11 14  2  0
 14 15  1  0
 15 16  1  0
 14 17  1  0
 17 18  2  0
 18 19  1  0
 19 20  1  0
 20 21  1  0
 21 22  1  6
 21 23  1  0
 23 24  1  0
 24 25  1  0
 25 26  2  0
 25 27  1  0
 27 28  1  0
 28 29  1  0
 29 30  1  0
 30 31  1  0
 31 32  1  0
 32 33  1  0
 33 34  1  0
 34 35  2  0
 34 36  1  0
 36 37  1  0
 38 37  1  6
 38 39  1  0
 38 40  1  0
 40 41  1  0
 41 42  1  0
 42 43  2  0
 43 44  1  0
 44 45  1  0
 45 46  1  0
 44 47  2  0
 47 48  1  0
 48 49  1  0
 47 50  1  0
 50 51  2  0
 51 52  1  0
 52 53  1  6
 53 54  1  0
 54 55  2  0
 55 56  1  0
 56 57  2  0
 57 58  1  0
 58 59  1  0
 57 60  1  0
 60 61  1  0
 61 62  1  0
 60 63  2  0
  6 64  1  0
 64 65  2  0
 65 66  1  0
 66 67  1  0
 65  3  1  0
 21  8  1  0
 52 38  1  0
 63 54  1  0
 18  9  1  0
 51 42  1  0
M  CHG  2  21   1  38   1
M  END
>  <zinc_id>  (104) 
ZINC000238809662

>  <smiles>  (104) 
COc1ccc(C[C@H]2c3cc(OC)c(OC)cc3CC[N@@+]2(C)CCC(=O)OCCCCCOC(=O)CC[N@@+]2(C)CCc3cc(OC)c(OC)cc3[C@H]2Cc2ccc(OC)c(OC)c2)cc1OC

$$$$

     RDKit          3D

 65 67  0  0  0  0  0  0  0  0999 V2000
    4.6460    0.6256    0.5286 C   0  0  0  0  0  0  0  0  0  0  0  0
    6.1991    0.9677    0.3200 C   0  0  2  0  0  0  0  0  0  0  0  0
    5.7483    2.5852    0.5760 C   0  0  2  0  0  0  0  0  0  0  0  0
    5.7795    3.0687   -0.8447 O   0  0  0  0  0  0  0  0  0  0  0  0
    7.3013    3.1653    0.9942 C   0  0  1  0  0  0  0  0  0  0  0  0
    8.0187    3.0220   -0.4542 C   0  0  0  0  0  0  0  0  0  0  0  0
    6.8253    4.6740    0.8081 C   0  0  0  0  0  0  0  0  0  0  0  0
    6.6511    5.2720   -0.2920 C   0  0  0  0  0  0  0  0  0  0  0  0
    5.4280    6.0349   -0.6123 C   0  0  0  0  0  0  0  0  0  0  0  0
    4.3318    5.9453    0.1481 C   0  0  0  0  0  0  0  0  0  0  0  0
    3.1791    5.3381   -0.5466 C   0  0  0  0  0  0  0  0  0  0  0  0
    2.7209    6.0369   -1.5268 C   0  0  0  0  0  0  0  0  0  0  0  0
    1.2457    5.9278   -1.4624 C   0  0  0  0  0  0  0  0  0  0  0  0
    0.8604    4.9372   -2.2292 C   0  0  0  0  0  0  0  0  0  0  0  0
   -0.6192    4.9281   -2.2522 C   0  0  0  0  0  0  0  0  0  0  0  0
   -0.9954    4.0891   -1.2946 C   0  0  0  0  0  0  0  0  0  0  0  0
   -1.5638    2.8585   -1.8797 C   0  0  0  0  0  0  0  0  0  0  0  0
   -2.7039    3.0188   -2.5546 C   0  0  0  0  0  0  0  0  0  0  0  0
   -3.8741    2.4011   -2.0148 C   0  0  0  0  0  0  0  0  0  0  0  0
   -3.8177    1.5516   -0.9868 C   0  0  0  0  0  0  0  0  0  0  0  0
   -5.2100    0.7404   -0.7831 C   0  0  2  0  0  0  0  0  0  0  0  0
   -5.4858    1.4467    0.5626 O   0  0  0  0  0  0  0  0  0  0  0  0
   -6.7743    0.6453    0.7919 C   0  0  2  0  0  0  0  0  0  0  0  0
   -7.7866    1.7050    0.8810 O   0  0  0  0  0  0  0  0  0  0  0  0
   -7.6748    3.0587    1.3960 C   0  0  2  0  0  0  0  0  0  0  0  0
   -6.5563    3.6195    0.3262 C   0  0  0  0  0  0  0  0  0  0  0  0
   -6.4763    2.7710    2.5918 C   0  0  1  0  0  0  0  0  0  0  0  0
   -7.1506    3.7377    3.5229 O   0  0  0  0  0  0  0  0  0  0  0  0
   -7.4705    1.5130    3.1327 C   0  0  2  0  0  0  0  0  0  0  0  0
   -6.7417    1.4246    4.4958 N   0  0  0  0  0  0  0  0  0  0  0  0
   -6.5317    0.2741    2.4747 C   0  0  2  0  0  0  0  0  0  0  0  0
   -5.1927    0.9095    2.6685 O   0  0  0  0  0  0  0  0  0  0  0  0
   -4.3835   -0.5525   -0.1861 C   0  0  0  0  0  0  0  0  0  0  0  0
   -5.1681   -1.8486   -0.8545 C   0  0  2  0  0  0  0  0  0  0  0  0
   -4.4133   -2.7489    0.0473 O   0  0  0  0  0  0  0  0  0  0  0  0
   -3.4595   -3.5034   -0.0832 C   0  0  2  0  0  0  0  0  0  0  0  0
   -3.8235   -4.8428    0.0902 O   0  0  0  0  0  0  0  0  0  0  0  0
   -2.3850   -3.1001    0.8622 C   0  0  0  0  0  0  0  0  0  0  0  0
   -1.7875   -4.4092    1.6546 C   0  0  1  0  0  0  0  0  0  0  0  0
   -1.5167   -5.1933    0.3789 O   0  0  0  0  0  0  0  0  0  0  0  0
   -0.3187   -3.6911    1.5818 C   0  0  0  0  0  0  0  0  0  0  0  0
    0.5864   -4.4440    2.7069 C   0  0  1  0  0  0  0  0  0  0  0  0
    0.3933   -5.8044    2.0917 O   0  0  0  0  0  0  0  0  0  0  0  0
    1.9468   -3.9161    1.7708 C   0  0  2  0  0  0  0  0  0  0  0  0
    2.1416   -5.1562    0.9439 O   0  0  0  0  0  0  0  0  0  0  0  0
    3.0758   -4.3809    2.8713 C   0  0  0  0  0  0  0  0  0  0  0  0
    4.0294   -3.3027    2.5509 C   0  0  0  0  0  0  0  0  0  0  0  0
    5.5743   -3.8410    2.4624 C   0  0  1  0  0  0  0  0  0  0  0  0
    5.1962   -5.3103    2.4148 O   0  0  0  0  0  0  0  0  0  0  0  0
    5.5664   -3.7470    0.8134 C   0  0  0  0  0  0  0  0  0  0  0  0
    6.9822   -2.9295    0.5859 C   0  0  1  0  0  0  0  0  0  0  0  0
    7.2815   -3.7235   -0.6748 O   0  0  0  0  0  0  0  0  0  0  0  0
    6.2338   -1.7468   -0.2667 C   0  0  0  0  0  0  0  0  0  0  0  0
    7.3498   -1.1481   -1.0535 C   0  0  0  0  0  0  0  0  0  0  0  0
    8.0962   -1.8452   -1.8115 O   0  0  0  0  0  0  0  0  0  0  0  0
    6.4781   -0.3509   -1.7450 O   0  0  0  0  0  0  0  0  0  0  0  0
    6.3018    1.0913   -1.3691 C   0  0  1  0  0  0  0  0  0  0  0  0
    4.6904    1.0157   -1.7218 C   0  0  0  0  0  0  0  0  0  0  0  0
   -2.6575   -3.5365   -1.3707 C   0  0  0  0  0  0  0  0  0  0  0  0
   -4.0450   -3.6393   -2.2409 C   0  0  2  0  0  0  0  0  0  0  0  0
   -3.2103   -3.5858   -3.4987 O   0  0  0  0  0  0  0  0  0  0  0  0
   -4.2113   -1.9543   -2.2689 C   0  0  1  0  0  0  0  0  0  0  0  0
   -5.4286   -2.1315   -3.2711 C   0  0  0  0  0  0  0  0  0  0  0  0
   -6.2014   -1.1679   -3.4267 O   0  0  0  0  0  0  0  0  0  0  0  0
   -5.2235   -2.8485   -4.4692 O   0  0  0  0  0  0  0  0  0  0  0  0
  2  1  1  6
  2  3  1  0
  3  4  1  6
  3  5  1  0
  5  6  1  6
  5  7  1  0
  7  8  2  0
  8  9  1  0
  9 10  2  0
 10 11  1  0
 11 12  2  0
 12 13  1  0
 13 14  2  0
 14 15  1  0
 15 16  2  0
 16 17  1  0
 17 18  2  0
 18 19  1  0
 19 20  2  0
 20 21  1  0
 21 22  1  1
 23 22  1  1
 23 24  1  0
 24 25  1  0
 25 26  1  6
 25 27  1  0
 27 28  1  1
 27 29  1  0
 29 30  1  1
 29 31  1  0
 31 32  1  1
 21 33  1  0
 34 33  1  1
 34 35  1  0
 35 36  1  0
 36 37  1  1
 36 38  1  0
 38 39  1  0
 39 40  1  6
 39 41  1  0
 41 42  1  0
 42 43  1  6
 42 44  1  0
 44 45  1  6
 44 46  1  0
 46 47  1  0
 47 48  1  0
 48 49  1  6
 48 50  1  0
 50 51  1  0
 51 52  1  6
 51 53  1  0
 53 54  1  0
 54 55  2  0
 54 56  1  0
 56 57  1  0
 57 58  1  6
 36 59  1  0
 59 60  1  0
 60 61  1  6
 60 62  1  0
 62 63  1  6
 63 64  2  0
 63 65  1  0
 57  2  1  0
 31 23  1  0
 62 34  1  0
M  END
>  <zinc_id>  (105) 
ZINC000253387843

>  <smiles>  (105) 
C[C@@H]1OC(=O)C[C@H](O)C[C@H](O)CC[C@@H](O)[C@H](O)C[C@H](O)C[C@]2(O)C[C@H](O)[C@@H](C(=O)O)[C@H](C[C@@H](O[C@@H]3O[C@H](C)[C@@H](O)[C@H](N)[C@@H]3O)/C=C/C=C/C=C/C=C/C=C/C=C/C=C/[C@H](C)[C@@H](O)[C@H]1C)O2

$$$$

     RDKit          3D

 26 30  0  0  0  0  0  0  0  0999 V2000
    4.7557    0.1433   -1.4310 C   0  0  0  0  0  0  0  0  0  0  0  0
    4.2405    0.4194   -0.1527 N   0  0  0  0  0  0  0  0  0  0  0  0
    4.0518    1.7611    0.0320 C   0  0  0  0  0  0  0  0  0  0  0  0
    2.8765   -0.2847    0.0721 C   0  0  2  0  0  0  0  0  0  0  0  0
    2.0687    0.8755    0.7759 C   0  0  0  0  0  0  0  0  0  0  0  0
    1.5625    0.9634   -0.7436 C   0  0  0  0  0  0  0  0  0  0  0  0
    0.2977    0.2899   -0.6037 O   0  0  0  0  0  0  0  0  0  0  0  0
   -0.4096    0.3715    0.5998 C   0  0  0  0  0  0  0  0  0  0  0  0
   -0.0717    1.4359    1.2241 O   0  0  0  0  0  0  0  0  0  0  0  0
   -1.7611   -0.0233    0.9180 C   0  0  0  0  0  0  0  0  0  0  0  0
   -1.8172   -0.0474    2.3288 O   0  0  0  0  0  0  0  0  0  0  0  0
   -2.6375    1.1373    0.5492 C   0  0  0  0  0  0  0  0  0  0  0  0
   -2.3814    1.9771   -0.5291 C   0  0  0  0  0  0  0  0  0  0  0  0
   -3.2512    3.0317   -0.5528 C   0  0  0  0  0  0  0  0  0  0  0  0
   -4.5673    2.6035   -0.4177 C   0  0  0  0  0  0  0  0  0  0  0  0
   -4.3453    1.2736    0.6459 S   0  0  0  0  0  0  0  0  0  0  0  0
   -2.2883   -1.2691    0.3451 C   0  0  0  0  0  0  0  0  0  0  0  0
   -2.9991   -2.1606    1.1510 C   0  0  0  0  0  0  0  0  0  0  0  0
   -3.4421   -3.2348    0.4569 C   0  0  0  0  0  0  0  0  0  0  0  0
   -4.1222   -2.8672   -0.6992 C   0  0  0  0  0  0  0  0  0  0  0  0
   -3.2389   -1.4410   -1.0810 S   0  0  0  0  0  0  0  0  0  0  0  0
    2.4519    0.0448   -1.7046 C   0  0  0  0  0  0  0  0  0  0  0  0
    2.9490   -0.3848   -0.2644 C   0  0  1  0  0  0  0  0  0  0  0  0
    3.7274   -1.9261   -0.3440 C   0  0  1  0  0  0  0  0  0  0  0  0
    4.9441   -1.2694    0.6143 O   0  0  0  0  0  0  0  0  0  0  0  0
    3.4072   -1.4200    1.2546 C   0  0  1  0  0  0  0  0  0  0  0  0
  1  2  1  0
  2  3  1  0
  2  4  1  0
  4  5  1  1
  5  6  1  0
  6  7  1  0
  7  8  1  0
  8  9  2  0
  8 10  1  0
 10 11  1  0
 10 12  1  0
 12 13  2  0
 13 14  1  0
 14 15  2  0
 15 16  1  0
 10 17  1  0
 17 18  2  0
 18 19  1  0
 19 20  2  0
 20 21  1  0
  6 22  1  0
 23 22  1  6
 23 24  1  0
 24 25  1  1
 26 25  1  1
 23  2  1  0
 26 24  1  0
 26  4  1  0
 16 12  1  0
 21 17  1  0
M  CHG  1   2   1
M  END
>  <zinc_id>  (106) 
ZINC000012503291

>  <smiles>  (106) 
C[N+]1(C)[C@H]2CC(OC(=O)C(O)(c3cccs3)c3cccs3)C[C@@H]1[C@@H]1O[C@@H]12

$$$$

     RDKit          3D

 12 12  0  0  0  0  0  0  0  0999 V2000
    1.3900    2.2597    1.2781 C   0  0  0  0  0  0  0  0  0  0  0  0
    0.6704    1.4778    0.2263 C   0  0  0  0  0  0  0  0  0  0  0  0
    0.0644    1.9766   -0.8733 N   0  0  0  0  0  0  0  0  0  0  0  0
   -0.9333    1.1335   -1.2389 C   0  0  0  0  0  0  0  0  0  0  0  0
   -0.9384    0.1336   -0.2734 C   0  0  0  0  0  0  0  0  0  0  0  0
   -1.8200   -0.9793   -0.2317 N   0  0  0  0  0  0  0  0  0  0  0  0
   -2.7518   -1.1192   -1.0577 O   0  0  0  0  0  0  0  0  0  0  0  0
   -1.9563   -1.5862    1.0033 O   0  0  0  0  0  0  0  0  0  0  0  0
    0.3207    0.1714    0.2274 N   0  0  0  0  0  0  0  0  0  0  0  0
    1.0097   -0.8218    1.0306 C   0  0  0  0  0  0  0  0  0  0  0  0
    1.9264   -1.6815    0.1916 C   0  0  0  0  0  0  0  0  0  0  0  0
    3.0182   -0.9647   -0.2823 O   0  0  0  0  0  0  0  0  0  0  0  0
  1  2  1  0
  2  3  2  0
  3  4  1  0
  4  5  2  0
  5  6  1  0
  6  7  2  0
  6  8  1  0
  5  9  1  0
  9 10  1  0
 10 11  1  0
 11 12  1  0
  9  2  1  0
M  CHG  2   6   1   8  -1
M  END
>  <zinc_id>  (107) 
ZINC000000113442

>  <smiles>  (107) 
Cc1ncc([N+](=O)[O-])n1CCO

$$$$

     RDKit          3D

 39 42  0  0  0  0  0  0  0  0999 V2000
   -1.5281   -4.5326    1.3444 C   0  0  0  0  0  0  0  0  0  0  0  0
   -0.6806   -3.7138    0.5418 O   0  0  0  0  0  0  0  0  0  0  0  0
   -0.8777   -3.5981   -0.8383 C   0  0  0  0  0  0  0  0  0  0  0  0
   -0.5358   -4.6814   -1.6063 C   0  0  0  0  0  0  0  0  0  0  0  0
   -1.1014   -4.8656   -2.8444 C   0  0  0  0  0  0  0  0  0  0  0  0
   -2.0643   -3.9600   -3.2662 C   0  0  0  0  0  0  0  0  0  0  0  0
   -2.0252   -2.7034   -2.6736 C   0  0  0  0  0  0  0  0  0  0  0  0
   -1.5601   -2.5122   -1.3774 C   0  0  0  0  0  0  0  0  0  0  0  0
   -2.3083   -1.7680   -0.4819 O   0  0  0  0  0  0  0  0  0  0  0  0
   -1.8540   -0.6798    0.2200 C   0  0  0  0  0  0  0  0  0  0  0  0
   -0.7591    0.0844   -0.1572 C   0  0  0  0  0  0  0  0  0  0  0  0
    0.2471   -0.5770   -0.8960 N   0  0  0  0  0  0  0  0  0  0  0  0
    1.7006    0.3070   -1.2268 S   0  0  0  0  0  0  0  0  0  0  0  0
    1.9764    0.1476   -2.7010 O   0  0  0  0  0  0  0  0  0  0  0  0
    1.5204    1.7796   -0.9340 O   0  0  0  0  0  0  0  0  0  0  0  0
    3.0548   -0.3352   -0.3076 C   0  0  0  0  0  0  0  0  0  0  0  0
    4.1467   -0.8824   -0.9705 C   0  0  0  0  0  0  0  0  0  0  0  0
    5.4240   -0.8370   -0.4299 C   0  0  0  0  0  0  0  0  0  0  0  0
    5.6725   -0.0658    0.6978 C   0  0  0  0  0  0  0  0  0  0  0  0
    6.9310    0.6909    0.8883 C   0  0  0  0  0  0  0  0  0  0  0  0
    7.9088    0.3632   -0.2056 C   0  0  0  0  0  0  0  0  0  0  0  0
    7.5972    0.3431    2.2138 C   0  0  0  0  0  0  0  0  0  0  0  0
    6.6868    2.1929    0.9187 C   0  0  0  0  0  0  0  0  0  0  0  0
    4.5800    0.1720    1.5144 C   0  0  0  0  0  0  0  0  0  0  0  0
    3.2980    0.0817    0.9943 C   0  0  0  0  0  0  0  0  0  0  0  0
   -0.7983    1.4336   -0.0349 N   0  0  0  0  0  0  0  0  0  0  0  0
   -1.8378    2.0667    0.5626 C   0  0  0  0  0  0  0  0  0  0  0  0
   -2.3198    3.3662    0.0748 C   0  0  0  0  0  0  0  0  0  0  0  0
   -2.9355    3.3769   -1.1329 N   0  0  0  0  0  0  0  0  0  0  0  0
   -3.3655    4.5435   -1.6718 C   0  0  0  0  0  0  0  0  0  0  0  0
   -3.7491    5.5355   -0.8001 C   0  0  0  0  0  0  0  0  0  0  0  0
   -3.5907    5.2899    0.5433 C   0  0  0  0  0  0  0  0  0  0  0  0
   -2.7290    4.3226    0.9412 N   0  0  0  0  0  0  0  0  0  0  0  0
   -2.6217    1.2680    1.3283 N   0  0  0  0  0  0  0  0  0  0  0  0
   -2.7552   -0.0570    1.0733 C   0  0  0  0  0  0  0  0  0  0  0  0
   -3.6421   -0.8460    1.8076 O   0  0  0  0  0  0  0  0  0  0  0  0
   -5.0363   -0.6524    1.8046 C   0  0  0  0  0  0  0  0  0  0  0  0
   -5.4165    0.1883    3.0132 C   0  0  0  0  0  0  0  0  0  0  0  0
   -4.6520   -0.2863    4.0739 O   0  0  0  0  0  0  0  0  0  0  0  0
  1  2  1  0
  2  3  1  0
  3  4  2  0
  4  5  1  0
  5  6  2  0
  6  7  1  0
  7  8  2  0
  8  9  1  0
  9 10  1  0
 10 11  1  0
 11 12  1  0
 12 13  1  0
 13 14  2  0
 13 15  2  0
 13 16  1  0
 16 17  2  0
 17 18  1  0
 18 19  2  0
 19 20  1  0
 20 21  1  0
 20 22  1  0
 20 23  1  0
 19 24  1  0
 24 25  2  0
 11 26  2  0
 26 27  1  0
 27 28  1  0
 28 29  2  0
 29 30  1  0
 30 31  2  0
 31 32  1  0
 32 33  2  0
 27 34  2  0
 34 35  1  0
 35 36  1  0
 36 37  1  0
 37 38  1  0
 38 39  1  0
  8  3  1  0
 35 10  2  0
 25 16  1  0
 33 28  1  0
M  END
>  <zinc_id>  (108) 
ZINC000001538857

>  <smiles>  (108) 
COc1ccccc1Oc1c(NS(=O)(=O)c2ccc(C(C)(C)C)cc2)nc(-c2ncccn2)nc1OCCO

$$$$

     RDKit          3D

 28 30  0  0  0  0  0  0  0  0999 V2000
    6.3512    1.5598   -0.6078 C   0  0  0  0  0  0  0  0  0  0  0  0
    6.2314    0.7705   -0.5094 O   0  0  0  0  0  0  0  0  0  0  0  0
    5.1934   -0.0158   -0.0000 C   0  0  0  0  0  0  0  0  0  0  0  0
    4.0434   -0.2670   -0.7386 C   0  0  0  0  0  0  0  0  0  0  0  0
    2.8561   -0.4088   -0.0393 C   0  0  0  0  0  0  0  0  0  0  0  0
    1.7236   -0.8757   -0.6123 N   0  0  0  0  0  0  0  0  0  0  0  0
    0.5270   -0.4079   -0.1814 C   0  0  0  0  0  0  0  0  0  0  0  0
   -0.5859   -0.4041   -1.0829 N   0  0  0  0  0  0  0  0  0  0  0  0
   -0.3669   -0.7015   -2.4956 C   0  0  0  0  0  0  0  0  0  0  0  0
   -1.8682    0.0936   -0.6191 C   0  0  0  0  0  0  0  0  0  0  0  0
   -2.7140    0.4112   -1.8469 C   0  0  0  0  0  0  0  0  0  0  0  0
   -3.2804   -0.9195   -2.3281 C   0  0  0  0  0  0  0  0  0  0  0  0
   -4.4362   -1.2283   -1.4888 N   0  0  0  0  0  0  0  0  0  0  0  0
   -5.2708   -0.1141   -1.1325 C   0  0  0  0  0  0  0  0  0  0  0  0
   -5.4257    0.7374   -2.0641 O   0  0  0  0  0  0  0  0  0  0  0  0
   -6.7427   -0.6769   -0.6209 C   0  0  2  0  0  0  0  0  0  0  0  0
   -7.2827    0.8667   -0.2193 C   0  0  0  0  0  0  0  0  0  0  0  0
   -6.0839    1.3825    0.4843 C   0  0  0  0  0  0  0  0  0  0  0  0
   -5.4331    0.1496    1.0103 C   0  0  0  0  0  0  0  0  0  0  0  0
   -6.2445   -0.9195    0.8257 O   0  0  0  0  0  0  0  0  0  0  0  0
    0.4986    0.2612    0.9927 N   0  0  0  0  0  0  0  0  0  0  0  0
    1.5783    0.3295    1.8071 C   0  0  0  0  0  0  0  0  0  0  0  0
    1.5556    1.0609    3.0317 N   0  0  0  0  0  0  0  0  0  0  0  0
    2.7712   -0.1858    1.3297 C   0  0  0  0  0  0  0  0  0  0  0  0
    3.9411   -0.1585    2.0770 C   0  0  0  0  0  0  0  0  0  0  0  0
    5.1451   -0.1659    1.3810 C   0  0  0  0  0  0  0  0  0  0  0  0
    6.3446   -0.5341    2.0004 O   0  0  0  0  0  0  0  0  0  0  0  0
    6.9744   -1.7634    1.6467 C   0  0  0  0  0  0  0  0  0  0  0  0
  1  2  1  0
  2  3  1  0
  3  4  2  0
  4  5  1  0
  5  6  2  0
  6  7  1  0
  7  8  1  0
  8  9  1  0
  8 10  1  0
 10 11  1  0
 11 12  1  0
 12 13  1  0
 13 14  1  0
 14 15  2  0
 16 14  1  6
 16 17  1  0
 17 18  1  0
 18 19  1  0
 19 20  1  0
  7 21  2  0
 21 22  1  0
 22 23  1  0
 22 24  2  0
 24 25  1  0
 25 26  2  0
 26 27  1  0
 27 28  1  0
 26  3  1  0
 24  5  1  0
 20 16  1  0
M  END
>  <zinc_id>  (109) 
ZINC000001542392

>  <smiles>  (109) 
COc1cc2nc(N(C)CCCNC(=O)[C@@H]3CCCO3)nc(N)c2cc1OC

$$$$

     RDKit          3D

 35 39  0  0  0  0  0  0  0  0999 V2000
    1.7642   -5.5165    0.2319 C   0  0  0  0  0  0  0  0  0  0  0  0
    2.3422   -4.5159   -0.6762 C   0  0  0  0  0  0  0  0  0  0  0  0
    2.7021   -3.4284   -1.0790 C   0  0  0  0  0  0  0  0  0  0  0  0
    3.0149   -2.0567   -1.5020 C   0  0  0  0  0  0  0  0  0  0  0  0
    2.8337   -1.1032   -0.4244 N   0  0  0  0  0  0  0  0  0  0  0  0
    3.7466   -0.1644   -0.0761 C   0  0  0  0  0  0  0  0  0  0  0  0
    4.9102    0.2568   -0.7977 N   0  0  0  0  0  0  0  0  0  0  0  0
    6.2207   -0.1424   -0.2954 C   0  0  0  0  0  0  0  0  0  0  0  0
    6.7096    0.8642    0.7121 C   0  0  0  0  0  0  0  0  0  0  0  0
    6.5662    2.2884    0.1877 C   0  0  0  0  0  0  0  0  0  0  0  0
    4.9065    2.4431    0.1089 C   0  0  1  0  0  0  0  0  0  0  0  0
    5.0287    3.8461   -0.6482 N   0  0  0  0  0  0  0  0  0  0  0  0
    4.8643    1.6138   -1.3395 C   0  0  0  0  0  0  0  0  0  0  0  0
    3.2174    0.3858    1.0451 N   0  0  0  0  0  0  0  0  0  0  0  0
    1.8888    0.1203    1.1011 C   0  0  0  0  0  0  0  0  0  0  0  0
    1.6184   -0.7427    0.0595 C   0  0  0  0  0  0  0  0  0  0  0  0
    0.3182   -0.8961   -0.3624 C   0  0  0  0  0  0  0  0  0  0  0  0
    0.1302   -1.6685   -1.3418 O   0  0  0  0  0  0  0  0  0  0  0  0
   -0.7224   -0.1758    0.1237 N   0  0  0  0  0  0  0  0  0  0  0  0
   -1.9479   -0.8972    0.3097 C   0  0  0  0  0  0  0  0  0  0  0  0
   -3.1603   -0.2621   -0.1799 C   0  0  0  0  0  0  0  0  0  0  0  0
   -3.3231    0.9935   -0.5925 N   0  0  0  0  0  0  0  0  0  0  0  0
   -4.5305    1.5621   -0.3498 C   0  0  0  0  0  0  0  0  0  0  0  0
   -4.6845    3.0476   -0.2928 C   0  0  0  0  0  0  0  0  0  0  0  0
   -5.6368    0.8184    0.0217 C   0  0  0  0  0  0  0  0  0  0  0  0
   -6.8745    1.3561    0.2581 C   0  0  0  0  0  0  0  0  0  0  0  0
   -7.9925    0.5394    0.3598 C   0  0  0  0  0  0  0  0  0  0  0  0
   -7.8464   -0.7786   -0.0396 C   0  0  0  0  0  0  0  0  0  0  0  0
   -6.6185   -1.3838    0.0140 C   0  0  0  0  0  0  0  0  0  0  0  0
   -5.5081   -0.5604    0.0013 C   0  0  0  0  0  0  0  0  0  0  0  0
   -4.2700   -1.0424   -0.1900 N   0  0  0  0  0  0  0  0  0  0  0  0
   -0.3944    0.7411    1.0643 C   0  0  0  0  0  0  0  0  0  0  0  0
   -1.2804    1.4843    1.5378 O   0  0  0  0  0  0  0  0  0  0  0  0
    0.8574    0.8752    1.5538 N   0  0  0  0  0  0  0  0  0  0  0  0
    1.1501    2.0990    2.2976 C   0  0  0  0  0  0  0  0  0  0  0  0
  1  2  1  0
  2  3  3  0
  3  4  1  0
  4  5  1  0
  5  6  1  0
  6  7  1  0
  7  8  1  0
  8  9  1  0
  9 10  1  0
 10 11  1  0
 11 12  1  6
 11 13  1  0
  6 14  2  0
 14 15  1  0
 15 16  2  0
 16 17  1  0
 17 18  2  0
 17 19  1  0
 19 20  1  0
 20 21  1  0
 21 22  2  0
 22 23  1  0
 23 24  1  0
 23 25  2  0
 25 26  1  0
 26 27  2  0
 27 28  1  0
 28 29  2  0
 29 30  1  0
 30 31  2  0
 19 32  1  0
 32 33  2  0
 32 34  1  0
 34 35  1  0
 16  5  1  0
 31 21  1  0
 13  7  1  0
 34 15  1  0
 30 25  1  0
M  END
>  <zinc_id>  (110) 
ZINC000003820029

>  <smiles>  (110) 
CC#CCn1c(N2CCC[C@@H](N)C2)nc2c1c(=O)n(Cc1nc(C)c3ccccc3n1)c(=O)n2C

$$$$

     RDKit          3D

 35 37  0  0  0  0  0  0  0  0999 V2000
   -2.1346   -0.4773   -3.3767 C   0  0  0  0  0  0  0  0  0  0  0  0
   -1.9895   -0.5393   -2.3156 C   0  0  0  0  0  0  0  0  0  0  0  0
   -1.9849   -0.5154   -0.8412 C   0  0  0  0  0  0  0  0  0  0  0  0
   -2.0066   -2.1270   -0.4524 C   0  0  2  0  0  0  0  0  0  0  0  0
   -2.1121   -1.7942    1.1664 C   0  0  0  0  0  0  0  0  0  0  0  0
   -3.3671   -1.0475    1.3333 C   0  0  0  0  0  0  0  0  0  0  0  0
   -3.4426   -0.2572    2.4737 C   0  0  0  0  0  0  0  0  0  0  0  0
   -4.1818    0.8788    2.5044 N   0  0  0  0  0  0  0  0  0  0  0  0
   -4.8499    1.2707    1.3927 C   0  0  0  0  0  0  0  0  0  0  0  0
   -4.9842    2.5794    1.0819 N   0  0  0  0  0  0  0  0  0  0  0  0
   -5.2486    2.9654   -0.1789 C   0  0  0  0  0  0  0  0  0  0  0  0
   -4.7289    4.1988   -0.6813 N   0  0  0  0  0  0  0  0  0  0  0  0
   -5.8249    2.0388   -0.9811 N   0  0  0  0  0  0  0  0  0  0  0  0
   -5.7126    0.7138   -0.7158 C   0  0  0  0  0  0  0  0  0  0  0  0
   -6.0524   -0.2529   -1.7002 N   0  0  0  0  0  0  0  0  0  0  0  0
   -5.0372    0.2937    0.4230 C   0  0  0  0  0  0  0  0  0  0  0  0
   -4.2949   -0.8420    0.4035 N   0  0  0  0  0  0  0  0  0  0  0  0
   -0.3852   -2.1791   -0.4014 C   0  0  0  0  0  0  0  0  0  0  0  0
    0.1506   -3.1194    0.4408 C   0  0  0  0  0  0  0  0  0  0  0  0
    1.5439   -3.1557    0.4623 C   0  0  0  0  0  0  0  0  0  0  0  0
    2.2944   -2.4605   -0.4808 C   0  0  0  0  0  0  0  0  0  0  0  0
    3.6369   -1.9398   -0.1715 C   0  0  0  0  0  0  0  0  0  0  0  0
    4.4258   -1.8017   -1.1550 O   0  0  0  0  0  0  0  0  0  0  0  0
    3.6367   -0.9264    0.8438 N   0  0  0  0  0  0  0  0  0  0  0  0
    5.1016   -0.3720    1.1709 C   0  0  1  0  0  0  0  0  0  0  0  0
    5.3209    0.1940   -0.3875 C   0  0  0  0  0  0  0  0  0  0  0  0
    6.7289    0.7686   -0.3206 C   0  0  0  0  0  0  0  0  0  0  0  0
    6.7757    2.1998   -0.7168 C   0  0  0  0  0  0  0  0  0  0  0  0
    7.8636    2.7853   -0.6493 O   0  0  0  0  0  0  0  0  0  0  0  0
    5.7406    2.7071   -1.4556 O   0  0  0  0  0  0  0  0  0  0  0  0
    4.5126    1.0664    1.6813 C   0  0  0  0  0  0  0  0  0  0  0  0
    5.2083    1.5903    2.5712 O   0  0  0  0  0  0  0  0  0  0  0  0
    3.5584    1.6532    0.9193 O   0  0  0  0  0  0  0  0  0  0  0  0
    1.6149   -2.0516   -1.6241 C   0  0  0  0  0  0  0  0  0  0  0  0
    0.2245   -2.0450   -1.6330 C   0  0  0  0  0  0  0  0  0  0  0  0
  1  2  3  0
  2  3  1  0
  4  3  1  6
  4  5  1  0
  5  6  1  0
  6  7  2  0
  7  8  1  0
  8  9  2  0
  9 10  1  0
 10 11  2  0
 11 12  1  0
 11 13  1  0
 13 14  2  0
 14 15  1  0
 14 16  1  0
 16 17  2  0
  4 18  1  0
 18 19  2  0
 19 20  1  0
 20 21  2  0
 21 22  1  0
 22 23  2  0
 22 24  1  0
 25 24  1  6
 25 26  1  0
 26 27  1  0
 27 28  1  0
 28 29  2  0
 28 30  1  0
 25 31  1  0
 31 32  2  0
 31 33  1  0
 21 34  1  0
 34 35  2  0
 17  6  1  0
 35 18  1  0
 16  9  1  0
M  END
>  <zinc_id>  (111) 
ZINC000011616925

>  <smiles>  (111) 
C#CC[C@H](Cc1cnc2nc(N)nc(N)c2n1)c1ccc(C(=O)N[C@@H](CCC(=O)O)C(=O)O)cc1

$$$$

     RDKit          3D

 14 14  0  0  0  0  0  0  0  0999 V2000
    4.7195   -0.8876   -0.8838 C   0  0  0  0  0  0  0  0  0  0  0  0
    3.8999   -0.2849   -0.5067 C   0  0  0  0  0  0  0  0  0  0  0  0
    2.9676    0.7722   -0.0907 C   0  0  0  0  0  0  0  0  0  0  0  0
    1.7614    0.2670    0.4913 N   0  0  0  0  0  0  0  0  0  0  0  0
    1.8648   -0.9912    1.1399 C   0  0  0  0  0  0  0  0  0  0  0  0
    0.7571    0.0620   -0.7351 C   0  0  1  0  0  0  0  0  0  0  0  0
    1.4915   -1.3676   -1.1885 C   0  0  0  0  0  0  0  0  0  0  0  0
   -0.3454   -0.7452    0.2240 C   0  0  0  0  0  0  0  0  0  0  0  0
   -1.6155   -0.0863   -0.2120 C   0  0  0  0  0  0  0  0  0  0  0  0
   -1.6902    1.2958   -0.1833 C   0  0  0  0  0  0  0  0  0  0  0  0
   -2.9219    1.8988   -0.0927 C   0  0  0  0  0  0  0  0  0  0  0  0
   -4.0675    1.1205    0.0013 C   0  0  0  0  0  0  0  0  0  0  0  0
   -4.0384   -0.2448   -0.2441 C   0  0  0  0  0  0  0  0  0  0  0  0
   -2.7828   -0.8088   -0.4259 C   0  0  0  0  0  0  0  0  0  0  0  0
  1  2  3  0
  2  3  1  0
  3  4  1  0
  4  5  1  0
  6  4  1  1
  6  7  1  0
  6  8  1  0
  8  9  1  0
  9 10  2  0
 10 11  1  0
 11 12  2  0
 12 13  1  0
 13 14  2  0
 14  9  1  0
M  END
>  <zinc_id>  (112) 
ZINC000022056030

>  <smiles>  (112) 
C#CCN(C)[C@@H](C)Cc1ccccc1

$$$$

     RDKit          3D

 20 23  0  0  0  0  0  0  0  0999 V2000
   -2.8309    2.9644    0.3290 C   0  0  0  0  0  0  0  0  0  0  0  0
   -2.5102    1.6603   -0.3012 C   0  0  0  0  0  0  0  0  0  0  0  0
   -3.4898    0.8545   -0.8696 C   0  0  0  0  0  0  0  0  0  0  0  0
   -3.2658   -0.5004   -1.0808 C   0  0  0  0  0  0  0  0  0  0  0  0
   -2.2076   -1.1051   -0.4860 N   0  0  0  0  0  0  0  0  0  0  0  0
   -1.2182   -0.3376    0.0176 C   0  0  0  0  0  0  0  0  0  0  0  0
   -1.3480    1.0396    0.1446 C   0  0  0  0  0  0  0  0  0  0  0  0
   -0.3619    1.9723    0.6067 N   0  0  0  0  0  0  0  0  0  0  0  0
    1.0542    1.8877    0.3980 C   0  0  0  0  0  0  0  0  0  0  0  0
    1.7800    2.7795    0.9126 O   0  0  0  0  0  0  0  0  0  0  0  0
    1.8034    0.6684    0.0716 C   0  0  0  0  0  0  0  0  0  0  0  0
    3.1469    0.8988   -0.1871 C   0  0  0  0  0  0  0  0  0  0  0  0
    3.7340    0.0188   -1.0895 C   0  0  0  0  0  0  0  0  0  0  0  0
    3.2465   -1.2695   -1.2684 C   0  0  0  0  0  0  0  0  0  0  0  0
    2.2033   -1.6124   -0.4720 N   0  0  0  0  0  0  0  0  0  0  0  0
    1.3688   -0.6460   -0.0184 C   0  0  0  0  0  0  0  0  0  0  0  0
    0.0043   -1.0819   -0.0184 N   0  0  0  0  0  0  0  0  0  0  0  0
   -0.1338   -2.4803    0.2882 C   0  0  0  0  0  0  0  0  0  0  0  0
   -1.1994   -2.9364    1.2509 C   0  0  0  0  0  0  0  0  0  0  0  0
    0.2242   -2.7746    1.7722 C   0  0  0  0  0  0  0  0  0  0  0  0
  1  2  1  0
  2  3  2  0
  3  4  1  0
  4  5  2  0
  5  6  1  0
  6  7  2  0
  7  8  1  0
  8  9  1  0
  9 10  2  0
  9 11  1  0
 11 12  2  0
 12 13  1  0
 13 14  2  0
 14 15  1  0
 15 16  2  0
 16 17  1  0
 17 18  1  0
 18 19  1  0
 19 20  1  0
  7  2  1  0
 16 11  1  0
 20 18  1  0
 17  6  1  0
M  END
>  <zinc_id>  (113) 
ZINC000000004778

>  <smiles>  (113) 
Cc1ccnc2c1NC(=O)c1cccnc1N2C1CC1

$$$$

     RDKit          3D

 16 16  0  0  0  0  0  0  0  0999 V2000
    3.3685    0.0737    0.7568 C   0  0  0  0  0  0  0  0  0  0  0  0
    3.5653    0.0683    0.5820 C   0  0  0  0  0  0  0  0  0  0  0  0
    4.2801   -1.1460    1.0335 C   0  0  0  0  0  0  0  0  0  0  0  0
    4.3078    1.3437    0.7093 C   0  0  0  0  0  0  0  0  0  0  0  0
    2.6505   -0.0534   -0.4671 N   0  0  0  0  0  0  0  0  0  0  0  0
    1.3244    0.4109   -0.0563 C   0  0  0  0  0  0  0  0  0  0  0  0
    0.4144   -0.7989   -0.7292 C   0  0  2  0  0  0  0  0  0  0  0  0
    0.0904    0.0462   -1.9590 O   0  0  0  0  0  0  0  0  0  0  0  0
   -0.9327   -0.3636    0.0679 C   0  0  0  0  0  0  0  0  0  0  0  0
   -1.2602    0.9487    0.0411 C   0  0  0  0  0  0  0  0  0  0  0  0
   -2.5178    1.2620    0.5455 C   0  0  0  0  0  0  0  0  0  0  0  0
   -3.0308    2.5320    0.2672 O   0  0  0  0  0  0  0  0  0  0  0  0
   -3.4474    0.2608    0.8063 C   0  0  0  0  0  0  0  0  0  0  0  0
   -3.0622   -1.0755    0.7919 C   0  0  0  0  0  0  0  0  0  0  0  0
   -3.9993   -2.1124    0.8462 O   0  0  0  0  0  0  0  0  0  0  0  0
   -1.7511   -1.3966    0.4524 C   0  0  0  0  0  0  0  0  0  0  0  0
  1  2  1  0
  2  3  1  0
  2  4  1  0
  2  5  1  0
  5  6  1  0
  7  6  1  1
  7  8  1  0
  7  9  1  0
  9 10  2  0
 10 11  1  0
 11 12  1  0
 11 13  2  0
 13 14  1  0
 14 15  1  0
 14 16  2  0
 16  9  1  0
M  END
>  <zinc_id>  (114) 
ZINC000000000746

>  <smiles>  (114) 
CC(C)(C)NC[C@H](O)c1cc(O)cc(O)c1

$$$$

     RDKit          3D

 17 18  0  0  0  0  0  0  0  0999 V2000
   -4.0738    2.1219    1.4542 C   0  0  0  0  0  0  0  0  0  0  0  0
   -3.9053    0.7683    1.0658 O   0  0  0  0  0  0  0  0  0  0  0  0
   -2.8204    0.4218    0.2636 C   0  0  0  0  0  0  0  0  0  0  0  0
   -1.7361    1.2482    0.0686 C   0  0  0  0  0  0  0  0  0  0  0  0
   -0.6147    0.7526   -0.5871 C   0  0  0  0  0  0  0  0  0  0  0  0
   -0.3805   -0.6158   -0.6302 C   0  0  0  0  0  0  0  0  0  0  0  0
    0.9509   -1.1744   -0.6820 C   0  0  0  0  0  0  0  0  0  0  0  0
    1.0816   -2.4196   -0.6781 O   0  0  0  0  0  0  0  0  0  0  0  0
    2.0818   -0.3354   -0.2650 C   0  0  0  0  0  0  0  0  0  0  0  0
    2.3160   -0.2953    1.1046 C   0  0  0  0  0  0  0  0  0  0  0  0
    3.3995    0.4674    1.5050 C   0  0  0  0  0  0  0  0  0  0  0  0
    3.9545    1.3843    0.6208 C   0  0  0  0  0  0  0  0  0  0  0  0
    3.1662    1.8034   -0.4449 C   0  0  0  0  0  0  0  0  0  0  0  0
    2.2389    0.8826   -0.9162 C   0  0  0  0  0  0  0  0  0  0  0  0
   -1.5022   -1.4315   -0.5544 C   0  0  0  0  0  0  0  0  0  0  0  0
   -1.4279   -2.7047   -1.1044 O   0  0  0  0  0  0  0  0  0  0  0  0
   -2.7285   -0.8739   -0.2203 C   0  0  0  0  0  0  0  0  0  0  0  0
  1  2  1  0
  2  3  1  0
  3  4  2  0
  4  5  1  0
  5  6  2  0
  6  7  1  0
  7  8  2  0
  7  9  1  0
  9 10  2  0
 10 11  1  0
 11 12  2  0
 12 13  1  0
 13 14  2  0
  6 15  1  0
 15 16  1  0
 15 17  2  0
 17  3  1  0
 14  9  1  0
M  END
>  <zinc_id>  (115) 
ZINC000000136138

>  <smiles>  (115) 
COc1ccc(C(=O)c2ccccc2)c(O)c1

$$$$

     RDKit          3D

 26 27  0  0  0  0  0  0  0  0999 V2000
    5.7799   -2.0190    0.1990 C   0  0  0  0  0  0  0  0  0  0  0  0
    6.3757   -0.7894   -0.2528 C   0  0  0  0  0  0  0  0  0  0  0  0
    6.2859    0.2795    0.7092 N   0  0  0  0  0  0  0  0  0  0  0  0
    6.5510    1.5801    0.1528 C   0  0  0  0  0  0  0  0  0  0  0  0
    5.2972    2.3990    0.0137 C   0  0  0  0  0  0  0  0  0  0  0  0
    5.1030    0.2275    1.5257 C   0  0  0  0  0  0  0  0  0  0  0  0
    3.8662    0.1874    0.7246 C   0  0  0  0  0  0  0  0  0  0  0  0
    2.8582    0.0469    0.0806 C   0  0  0  0  0  0  0  0  0  0  0  0
    1.9274   -0.6281   -0.8413 C   0  0  0  0  0  0  0  0  0  0  0  0
    0.6704   -0.0034   -0.6398 O   0  0  0  0  0  0  0  0  0  0  0  0
   -0.4484   -0.7858   -0.3405 C   0  0  0  0  0  0  0  0  0  0  0  0
   -0.2572   -1.6707    0.5453 O   0  0  0  0  0  0  0  0  0  0  0  0
   -1.7852   -0.5310   -0.9460 C   0  0  2  0  0  0  0  0  0  0  0  0
   -1.7627   -0.8012   -2.3226 O   0  0  0  0  0  0  0  0  0  0  0  0
   -2.1879    0.8975   -0.7733 C   0  0  0  0  0  0  0  0  0  0  0  0
   -2.2457    1.7685   -1.8543 C   0  0  0  0  0  0  0  0  0  0  0  0
   -2.9806    2.9287   -1.7990 C   0  0  0  0  0  0  0  0  0  0  0  0
   -3.3930    3.3782   -0.5542 C   0  0  0  0  0  0  0  0  0  0  0  0
   -2.9733    2.7064    0.5694 C   0  0  0  0  0  0  0  0  0  0  0  0
   -2.4205    1.4509    0.4646 C   0  0  0  0  0  0  0  0  0  0  0  0
   -2.7788   -1.4738   -0.3264 C   0  0  0  0  0  0  0  0  0  0  0  0
   -3.0311   -1.1257    1.1157 C   0  0  0  0  0  0  0  0  0  0  0  0
   -4.3385   -1.6692    1.6205 C   0  0  0  0  0  0  0  0  0  0  0  0
   -4.8909   -2.7675    0.7540 C   0  0  0  0  0  0  0  0  0  0  0  0
   -5.1275   -2.3011   -0.6624 C   0  0  0  0  0  0  0  0  0  0  0  0
   -4.0936   -1.2848   -1.0671 C   0  0  0  0  0  0  0  0  0  0  0  0
  1  2  1  0
  2  3  1  0
  3  4  1  0
  4  5  1  0
  3  6  1  0
  6  7  1  0
  7  8  3  0
  8  9  1  0
  9 10  1  0
 10 11  1  0
 11 12  2  0
 13 11  1  1
 13 14  1  0
 13 15  1  0
 15 16  2  0
 16 17  1  0
 17 18  2  0
 18 19  1  0
 19 20  2  0
 13 21  1  0
 21 22  1  0
 22 23  1  0
 23 24  1  0
 24 25  1  0
 25 26  1  0
 20 15  1  0
 26 21  1  0
M  END
>  <zinc_id>  (116) 
ZINC000001530752

>  <smiles>  (116) 
CCN(CC)CC#CCOC(=O)[C@](O)(c1ccccc1)C1CCCCC1

$$$$

     RDKit          3D

 17 17  0  0  0  0  0  0  0  0999 V2000
    0.2930    3.5653   -0.4781 C   0  0  0  0  0  0  0  0  0  0  0  0
    0.1590    2.4237   -0.8116 C   0  0  0  0  0  0  0  0  0  0  0  0
    0.7976    1.2274   -0.2784 C   0  0  0  0  0  0  0  0  0  0  0  0
   -0.0039    0.0068   -0.1545 C   0  0  0  0  0  0  0  0  0  0  0  0
    0.8738   -1.2696   -0.7365 C   0  0  1  0  0  0  0  0  0  0  0  0
    0.8296   -0.6868   -2.2846 C   0  0  0  0  0  0  0  0  0  0  0  0
    2.3449   -0.5644   -0.4664 C   0  0  0  0  0  0  0  0  0  0  0  0
    3.1642   -1.5774    0.2684 C   0  0  0  0  0  0  0  0  0  0  0  0
    4.2266   -0.7871    1.0267 C   0  0  0  0  0  0  0  0  0  0  0  0
   -0.2751   -0.4516    1.2195 C   0  0  0  0  0  0  0  0  0  0  0  0
    0.6900   -0.7801    1.9562 O   0  0  0  0  0  0  0  0  0  0  0  0
   -1.5655   -0.7539    1.7365 N   0  0  0  0  0  0  0  0  0  0  0  0
   -2.6951   -0.3351    1.0059 C   0  0  0  0  0  0  0  0  0  0  0  0
   -3.8385   -0.7208    1.3981 O   0  0  0  0  0  0  0  0  0  0  0  0
   -2.5177   -0.0525   -0.3628 N   0  0  0  0  0  0  0  0  0  0  0  0
   -1.2280    0.0393   -0.9827 C   0  0  0  0  0  0  0  0  0  0  0  0
   -1.2548    0.7169   -2.0558 O   0  0  0  0  0  0  0  0  0  0  0  0
  1  2  2  0
  2  3  1  0
  3  4  1  0
  5  4  1  1
  5  6  1  0
  5  7  1  0
  7  8  1  0
  8  9  1  0
  4 10  1  0
 10 11  2  0
 10 12  1  0
 12 13  1  0
 13 14  2  0
 13 15  1  0
 15 16  1  0
 16 17  2  0
 16  4  1  0
M  END
>  <zinc_id>  (117) 
ZINC000002005550

>  <smiles>  (117) 
C=CCC1([C@@H](C)CCC)C(=O)NC(=O)NC1=O

$$$$

     RDKit          3D

 39 43  0  0  0  0  0  0  0  0999 V2000
    4.6922   -0.2067    2.4680 C   0  0  0  0  0  0  0  0  0  0  0  0
    4.8352   -0.8741    2.3165 O   0  0  0  0  0  0  0  0  0  0  0  0
    5.0587   -1.4444    1.0650 C   0  0  0  0  0  0  0  0  0  0  0  0
    6.3134   -1.6317    0.5179 C   0  0  0  0  0  0  0  0  0  0  0  0
    6.4728   -1.7575   -0.8586 C   0  0  0  0  0  0  0  0  0  0  0  0
    5.4127   -1.5218   -1.7250 C   0  0  0  0  0  0  0  0  0  0  0  0
    4.1571   -1.2627   -1.1886 C   0  0  0  0  0  0  0  0  0  0  0  0
    3.9893   -1.4706    0.1772 C   0  0  0  0  0  0  0  0  0  0  0  0
    2.6078   -1.4760    0.6832 C   0  0  0  0  0  0  0  0  0  0  0  0
    2.4147   -1.6169    1.9307 O   0  0  0  0  0  0  0  0  0  0  0  0
    1.5981   -0.8473   -0.1883 C   0  0  0  0  0  0  0  0  0  0  0  0
    0.3741   -0.5733    0.3653 C   0  0  0  0  0  0  0  0  0  0  0  0
   -0.0844   -1.2121    1.5158 O   0  0  0  0  0  0  0  0  0  0  0  0
   -0.3501    0.5851    0.1278 C   0  0  0  0  0  0  0  0  0  0  0  0
    0.1582    1.4098   -0.8739 C   0  0  0  0  0  0  0  0  0  0  0  0
    1.3370    1.1340   -1.5603 C   0  0  0  0  0  0  0  0  0  0  0  0
    1.9596    2.0887   -2.3067 O   0  0  0  0  0  0  0  0  0  0  0  0
    1.9829   -0.0583   -1.2684 C   0  0  0  0  0  0  0  0  0  0  0  0
    3.1797   -0.4998   -1.9813 C   0  0  0  0  0  0  0  0  0  0  0  0
    3.5242    0.1997   -2.9770 O   0  0  0  0  0  0  0  0  0  0  0  0
   -0.5219    2.7145   -0.9452 C   0  0  0  0  0  0  0  0  0  0  0  0
   -1.5037    2.6728    0.2241 C   0  0  1  0  0  0  0  0  0  0  0  0
   -0.8212    2.7189    1.4525 O   0  0  0  0  0  0  0  0  0  0  0  0
   -2.1760    4.0079    0.1416 C   0  0  0  0  0  0  0  0  0  0  0  0
   -3.3421    4.1937    0.3931 O   0  0  0  0  0  0  0  0  0  0  0  0
   -1.2070    5.1394    0.3211 C   0  0  0  0  0  0  0  0  0  0  0  0
   -1.8149    6.3354   -0.0024 O   0  0  0  0  0  0  0  0  0  0  0  0
   -2.5249    1.6659    0.2178 C   0  0  0  0  0  0  0  0  0  0  0  0
   -1.9010    0.2052   -0.3197 C   0  0  2  0  0  0  0  0  0  0  0  0
   -2.2706   -0.4970    1.0143 O   0  0  0  0  0  0  0  0  0  0  0  0
   -2.6957   -1.8251    0.2897 C   0  0  1  0  0  0  0  0  0  0  0  0
   -3.7276   -2.2451    1.5701 C   0  0  0  0  0  0  0  0  0  0  0  0
   -4.6191   -3.4471    0.8780 C   0  0  2  0  0  0  0  0  0  0  0  0
   -3.6923   -3.7165   -0.3830 N   0  0  0  0  0  0  0  0  0  0  0  0
   -5.6473   -2.4102   -0.0561 C   0  0  1  0  0  0  0  0  0  0  0  0
   -6.6739   -2.3657    1.0456 O   0  0  0  0  0  0  0  0  0  0  0  0
   -4.8776   -0.9608    0.5209 C   0  0  2  0  0  0  0  0  0  0  0  0
   -5.8162   -0.0526   -0.4967 C   0  0  0  0  0  0  0  0  0  0  0  0
   -3.7999   -1.0979   -0.5508 O   0  0  0  0  0  0  0  0  0  0  0  0
  1  2  1  0
  2  3  1  0
  3  4  2  0
  4  5  1  0
  5  6  2  0
  6  7  1  0
  7  8  2  0
  8  9  1  0
  9 10  2  0
  9 11  1  0
 11 12  2  0
 12 13  1  0
 12 14  1  0
 14 15  2  0
 15 16  1  0
 16 17  1  0
 16 18  2  0
 18 19  1  0
 19 20  2  0
 15 21  1  0
 21 22  1  0
 22 23  1  1
 22 24  1  0
 24 25  2  0
 24 26  1  0
 26 27  1  0
 22 28  1  0
 28 29  1  0
 29 30  1  1
 31 30  1  1
 31 32  1  0
 32 33  1  0
 33 34  1  6
 33 35  1  0
 35 36  1  1
 35 37  1  0
 37 38  1  6
 37 39  1  0
  8  3  1  0
 18 11  1  0
 39 31  1  0
 19  7  1  0
 29 14  1  0
M  END
>  <zinc_id>  (118) 
ZINC000003938704

>  <smiles>  (118) 
COc1cccc2c1C(=O)c1c(O)c3c(c(O)c1C2=O)C[C@@](O)(C(=O)CO)C[C@@H]3O[C@H]1C[C@H](N)[C@@H](O)[C@H](C)O1

$$$$

     RDKit          3D

 11 10  0  0  0  0  0  0  0  0999 V2000
   -2.8810    1.3936   -0.7136 O   0  0  0  0  0  0  0  0  0  0  0  0
   -2.4432    0.5848    0.5557 Si  0  0  0  0  0  4  0  0  0  0  0  0
   -1.7526    1.4472    1.8934 O   0  0  0  0  0  0  0  0  0  0  0  0
   -1.8839   -1.0473    0.2873 O   0  0  0  0  0  0  0  0  0  0  0  0
   -0.2154   -1.2485   -0.1398 Si  0  0  0  0  0  4  0  0  0  0  0  0
   -0.0231   -1.3756   -1.8421 O   0  0  0  0  0  0  0  0  0  0  0  0
    0.4548   -2.6489    0.5735 O   0  0  0  0  0  0  0  0  0  0  0  0
    0.7121    0.1029    0.3897 O   0  0  0  0  0  0  0  0  0  0  0  0
    2.1723    0.6213   -0.4225 Si  0  0  0  0  0  4  0  0  0  0  0  0
    2.1872    2.1526   -0.8210 O   0  0  0  0  0  0  0  0  0  0  0  0
    3.6726    0.0179    0.2395 O   0  0  0  0  0  0  0  0  0  0  0  0
  1  2  2  0
  2  3  1  0
  2  4  1  0
  4  5  1  0
  5  6  1  0
  5  7  1  0
  5  8  1  0
  8  9  1  0
  9 10  2  0
  9 11  1  0
M  END
>  <zinc_id>  (119) 
ZINC000247651495

>  <smiles>  (119) 
O=[Si](O)O[Si](O)(O)O[Si](=O)O

$$$$

     RDKit          3D

 51 55  0  0  0  0  0  0  0  0999 V2000
    6.0525    8.5904   -0.2903 C   0  0  0  0  0  0  0  0  0  0  0  0
    4.5968    8.4577   -0.0534 C   0  0  0  0  0  0  0  0  0  0  0  0
    3.9737    7.8277   -1.2917 C   0  0  0  0  0  0  0  0  0  0  0  0
    4.2646    6.3400   -1.2022 C   0  0  0  0  0  0  0  0  0  0  0  0
    3.0619    5.6697   -0.6468 C   0  0  0  0  0  0  0  0  0  0  0  0
    2.8009    5.5618    0.5656 O   0  0  0  0  0  0  0  0  0  0  0  0
    2.3087    4.9339   -1.5122 O   0  0  0  0  0  0  0  0  0  0  0  0
    1.3054    4.0508   -1.2495 C   0  0  0  0  0  0  0  0  0  0  0  0
    1.4700    3.1536   -0.0856 C   0  0  0  0  0  0  0  0  0  0  0  0
    2.5654    2.6382    0.1382 O   0  0  0  0  0  0  0  0  0  0  0  0
    0.3602    2.1346   -0.0101 C   0  0  2  0  0  0  0  0  0  0  0  0
   -0.7853    2.9485   -0.0308 O   0  0  0  0  0  0  0  0  0  0  0  0
    0.4586    1.3115    1.2435 C   0  0  0  0  0  0  0  0  0  0  0  0
    0.8600   -0.0481    0.7776 C   0  0  0  0  0  0  0  0  0  0  0  0
    1.8571   -0.7048    1.4880 C   0  0  0  0  0  0  0  0  0  0  0  0
    2.4058   -0.1457    2.6245 O   0  0  0  0  0  0  0  0  0  0  0  0
    2.1041   -2.0522    1.2670 C   0  0  0  0  0  0  0  0  0  0  0  0
    1.7583   -2.5277    0.0220 C   0  0  0  0  0  0  0  0  0  0  0  0
    0.7761   -1.8980   -0.7253 C   0  0  0  0  0  0  0  0  0  0  0  0
    0.3892   -2.4299   -1.9359 O   0  0  0  0  0  0  0  0  0  0  0  0
    0.1971   -0.7718   -0.1584 C   0  0  0  0  0  0  0  0  0  0  0  0
   -0.5386    0.1272   -1.3310 C   0  0  1  0  0  0  0  0  0  0  0  0
   -1.5148    0.7418   -0.2928 O   0  0  0  0  0  0  0  0  0  0  0  0
   -2.5497   -0.3653   -0.6725 C   0  0  1  0  0  0  0  0  0  0  0  0
   -3.8252    0.4941    0.0505 C   0  0  0  0  0  0  0  0  0  0  0  0
   -4.9715    0.2031   -1.1030 C   0  0  2  0  0  0  0  0  0  0  0  0
   -6.0055   -0.3346   -0.0467 N   0  0  0  0  0  0  0  0  0  0  0  0
   -6.9696    0.5962    0.4067 C   0  0  0  0  0  0  0  0  0  0  0  0
   -7.4730    1.3727   -0.4587 O   0  0  0  0  0  0  0  0  0  0  0  0
   -7.2220    0.8736    1.8590 C   0  0  0  0  0  0  0  0  0  0  0  0
   -6.3469    0.1105    2.6263 F   0  0  0  0  0  0  0  0  0  0  0  0
   -8.4955    0.6496    2.2438 F   0  0  0  0  0  0  0  0  0  0  0  0
   -6.7952    2.1888    2.0131 F   0  0  0  0  0  0  0  0  0  0  0  0
   -4.3751   -1.3977   -1.3620 C   0  0  1  0  0  0  0  0  0  0  0  0
   -5.5668   -1.8171   -2.1827 O   0  0  0  0  0  0  0  0  0  0  0  0
   -3.4199   -0.9230   -2.7449 C   0  0  1  0  0  0  0  0  0  0  0  0
   -4.6322   -0.0425   -3.4641 C   0  0  0  0  0  0  0  0  0  0  0  0
   -2.8312    0.3139   -2.0555 O   0  0  0  0  0  0  0  0  0  0  0  0
    0.5912    1.3591   -1.2320 C   0  0  0  0  0  0  0  0  0  0  0  0
    2.2101   -3.8359   -0.4624 C   0  0  0  0  0  0  0  0  0  0  0  0
    2.1850   -4.1613   -1.6730 O   0  0  0  0  0  0  0  0  0  0  0  0
    2.9588   -4.6402    0.4994 C   0  0  0  0  0  0  0  0  0  0  0  0
    3.6175   -5.7469    0.0199 C   0  0  0  0  0  0  0  0  0  0  0  0
    4.1309   -5.7465   -1.2573 O   0  0  0  0  0  0  0  0  0  0  0  0
    5.1807   -4.8749   -1.6731 C   0  0  0  0  0  0  0  0  0  0  0  0
    4.0234   -6.6986    0.9400 C   0  0  0  0  0  0  0  0  0  0  0  0
    3.6638   -6.5177    2.2703 C   0  0  0  0  0  0  0  0  0  0  0  0
    3.3830   -5.2501    2.7699 C   0  0  0  0  0  0  0  0  0  0  0  0
    2.9505   -4.3149    1.8448 C   0  0  0  0  0  0  0  0  0  0  0  0
    2.6532   -2.9471    2.2596 C   0  0  0  0  0  0  0  0  0  0  0  0
    3.2039   -2.4564    3.2744 O   0  0  0  0  0  0  0  0  0  0  0  0
  1  2  1  0
  2  3  1  0
  3  4  1  0
  4  5  1  0
  5  6  2  0
  5  7  1  0
  7  8  1  0
  8  9  1  0
  9 10  2  0
 11  9  1  1
 11 12  1  0
 11 13  1  0
 13 14  1  0
 14 15  2  0
 15 16  1  0
 15 17  1  0
 17 18  2  0
 18 19  1  0
 19 20  1  0
 19 21  2  0
 21 22  1  0
 22 23  1  1
 24 23  1  1
 24 25  1  0
 25 26  1  0
 26 27  1  1
 27 28  1  0
 28 29  2  0
 28 30  1  0
 30 31  1  0
 30 32  1  0
 30 33  1  0
 26 34  1  0
 34 35  1  6
 34 36  1  0
 36 37  1  6
 36 38  1  0
 22 39  1  0
 18 40  1  0
 40 41  2  0
 40 42  1  0
 42 43  2  0
 43 44  1  0
 44 45  1  0
 43 46  1  0
 46 47  2  0
 47 48  1  0
 48 49  2  0
 49 50  1  0
 50 51  2  0
 39 11  1  0
 49 42  1  0
 21 14  1  0
 38 24  1  0
 50 17  1  0
M  END
>  <zinc_id>  (120) 
ZINC000028232755

>  <smiles>  (120) 
CCCCC(=O)OCC(=O)[C@]1(O)Cc2c(O)c3c(c(O)c2[C@@H](O[C@H]2C[C@H](NC(=O)C(F)(F)F)[C@@H](O)[C@@H](C)O2)C1)C(=O)c1c(OC)cccc1C3=O

$$$$

     RDKit          3D

 49 53  0  0  0  0  0  0  0  0999 V2000
   -5.2092    5.0650    0.0803 C   0  0  0  0  0  0  0  0  0  0  0  0
   -5.3903    4.2837    1.3369 C   0  0  0  0  0  0  0  0  0  0  0  0
   -4.8960    5.0508    2.5619 C   0  0  0  0  0  0  0  0  0  0  0  0
   -6.8978    4.1753    1.5579 C   0  0  0  0  0  0  0  0  0  0  0  0
   -4.7285    3.0187    1.3583 N   0  0  0  0  0  0  0  0  0  0  0  0
   -4.3179    2.2304    0.2320 C   0  0  0  0  0  0  0  0  0  0  0  0
   -4.5763    2.7868   -0.8807 O   0  0  0  0  0  0  0  0  0  0  0  0
   -5.0870    0.8065    0.3582 C   0  0  2  0  0  0  0  0  0  0  0  0
   -3.9876    0.2132    1.4246 C   0  0  0  0  0  0  0  0  0  0  0  0
   -4.6087   -1.2280    1.8339 C   0  0  1  0  0  0  0  0  0  0  0  0
   -6.1598   -0.9814    1.3997 C   0  0  0  0  0  0  0  0  0  0  0  0
   -6.7960   -2.1867    2.0837 C   0  0  0  0  0  0  0  0  0  0  0  0
   -5.8246   -3.3279    1.7865 C   0  0  0  0  0  0  0  0  0  0  0  0
   -5.3032   -3.1359    0.4291 C   0  0  0  0  0  0  0  0  0  0  0  0
   -4.1250   -2.0162    0.3955 C   0  0  1  0  0  0  0  0  0  0  0  0
   -4.9513   -1.1234   -0.6724 C   0  0  0  0  0  0  0  0  0  0  0  0
   -4.3465    0.1350   -0.8637 N   0  0  0  0  0  0  0  0  0  0  0  0
   -2.9597    0.2673   -0.7212 C   0  0  0  0  0  0  0  0  0  0  0  0
   -2.4176   -1.0811   -1.4909 C   0  0  1  0  0  0  0  0  0  0  0  0
   -3.0841   -0.6696   -2.7864 O   0  0  0  0  0  0  0  0  0  0  0  0
   -0.9388   -0.3295   -1.9619 C   0  0  2  0  0  0  0  0  0  0  0  0
   -0.7709   -1.2795   -3.2678 C   0  0  0  0  0  0  0  0  0  0  0  0
   -0.5449   -2.6544   -2.9177 C   0  0  0  0  0  0  0  0  0  0  0  0
   -1.3288   -3.4567   -2.1013 C   0  0  0  0  0  0  0  0  0  0  0  0
   -1.3570   -4.8401   -2.2279 C   0  0  0  0  0  0  0  0  0  0  0  0
   -0.4289   -5.4681   -3.0504 C   0  0  0  0  0  0  0  0  0  0  0  0
    0.4994   -4.6880   -3.7310 C   0  0  0  0  0  0  0  0  0  0  0  0
    0.1235   -3.3766   -3.9086 C   0  0  0  0  0  0  0  0  0  0  0  0
   -0.0655   -1.2106   -1.0013 N   0  0  0  0  0  0  0  0  0  0  0  0
    1.2444   -0.6217   -1.0684 C   0  0  0  0  0  0  0  0  0  0  0  0
    1.8804   -0.9828   -2.0008 O   0  0  0  0  0  0  0  0  0  0  0  0
    1.9115   -0.1750    0.3285 C   0  0  2  0  0  0  0  0  0  0  0  0
    2.1921    1.3702   -0.1888 C   0  0  0  0  0  0  0  0  0  0  0  0
    2.8575    1.2736   -1.4969 C   0  0  0  0  0  0  0  0  0  0  0  0
    4.2528    1.6061   -1.5622 N   0  0  0  0  0  0  0  0  0  0  0  0
    2.2047    1.8044   -2.4505 O   0  0  0  0  0  0  0  0  0  0  0  0
    3.3918   -0.6245   -0.0318 N   0  0  0  0  0  0  0  0  0  0  0  0
    4.1123   -0.8326    1.1896 C   0  0  0  0  0  0  0  0  0  0  0  0
    3.5180   -1.2270    2.2385 O   0  0  0  0  0  0  0  0  0  0  0  0
    5.4329   -0.2451    1.4604 C   0  0  0  0  0  0  0  0  0  0  0  0
    6.6056   -0.9137    1.1931 C   0  0  0  0  0  0  0  0  0  0  0  0
    7.8289   -0.2990    1.4313 C   0  0  0  0  0  0  0  0  0  0  0  0
    7.9044    0.9901    1.9369 C   0  0  0  0  0  0  0  0  0  0  0  0
    9.0907    1.6797    2.0619 C   0  0  0  0  0  0  0  0  0  0  0  0
    9.1253    2.9901    2.4828 C   0  0  0  0  0  0  0  0  0  0  0  0
    7.9228    3.6782    2.5727 C   0  0  0  0  0  0  0  0  0  0  0  0
    6.7525    2.9988    2.3148 C   0  0  0  0  0  0  0  0  0  0  0  0
    6.6989    1.6125    2.2265 C   0  0  0  0  0  0  0  0  0  0  0  0
    5.5512    0.9387    2.1070 N   0  0  0  0  0  0  0  0  0  0  0  0
  1  2  1  0
  2  3  1  0
  2  4  1  0
  2  5  1  0
  5  6  1  0
  6  7  2  0
  8  6  1  6
  8  9  1  0
 10  9  1  6
 10 11  1  0
 11 12  1  0
 12 13  1  0
 13 14  1  0
 15 14  1  1
 15 16  1  0
 16 17  1  0
 17 18  1  0
 19 18  1  1
 19 20  1  0
 19 21  1  0
 21 22  1  6
 22 23  1  0
 23 24  2  0
 24 25  1  0
 25 26  2  0
 26 27  1  0
 27 28  2  0
 21 29  1  0
 29 30  1  0
 30 31  2  0
 32 30  1  6
 32 33  1  0
 33 34  1  0
 34 35  1  0
 34 36  2  0
 32 37  1  0
 37 38  1  0
 38 39  2  0
 38 40  1  0
 40 41  2  0
 41 42  1  0
 42 43  2  0
 43 44  1  0
 44 45  2  0
 45 46  1  0
 46 47  2  0
 47 48  1  0
 48 49  2  0
 17  8  1  0
 28 23  1  0
 49 40  1  0
 15 10  1  0
 48 43  1  0
M  END
>  <zinc_id>  (121) 
ZINC000029416466

>  <smiles>  (121) 
CC(C)(C)NC(=O)[C@@H]1C[C@H]2CCCC[C@H]2CN1C[C@@H](O)[C@H](Cc1ccccc1)NC(=O)[C@H](CC(N)=O)NC(=O)c1ccc2ccccc2n1

$$$$

     RDKit          3D

 22 24  0  0  0  0  0  0  0  0999 V2000
   -4.5035   -3.8691    0.6908 N   0  0  0  0  0  0  0  0  0  0  0  0
   -4.0901   -2.8476    0.3121 C   0  0  0  0  0  0  0  0  0  0  0  0
   -3.1905   -1.8213   -0.1161 C   0  0  0  0  0  0  0  0  0  0  0  0
   -2.2330   -2.0220   -1.1031 C   0  0  0  0  0  0  0  0  0  0  0  0
   -1.3226   -1.0221   -1.4209 C   0  0  0  0  0  0  0  0  0  0  0  0
   -1.2472    0.1165   -0.6699 C   0  0  0  0  0  0  0  0  0  0  0  0
   -0.0878    1.0266   -0.7749 C   0  0  0  0  0  0  0  0  0  0  0  0
    1.2063    0.3540   -0.5895 C   0  0  0  0  0  0  0  0  0  0  0  0
    1.2437   -0.9930   -0.3147 C   0  0  0  0  0  0  0  0  0  0  0  0
    2.2648   -1.5511    0.4306 C   0  0  0  0  0  0  0  0  0  0  0  0
    3.4522   -0.8513    0.6041 C   0  0  0  0  0  0  0  0  0  0  0  0
    4.6247   -1.4946    1.1499 C   0  0  0  0  0  0  0  0  0  0  0  0
    5.5778   -2.1207    1.3997 N   0  0  0  0  0  0  0  0  0  0  0  0
    3.4621    0.4854    0.2677 C   0  0  0  0  0  0  0  0  0  0  0  0
    2.3189    1.1019   -0.2264 C   0  0  0  0  0  0  0  0  0  0  0  0
   -0.2576    2.2186    0.0029 N   0  0  0  0  0  0  0  0  0  0  0  0
    0.2775    3.4313   -0.2831 C   0  0  0  0  0  0  0  0  0  0  0  0
   -0.4498    4.3723    0.3655 N   0  0  0  0  0  0  0  0  0  0  0  0
   -1.2800    3.6817    1.1809 C   0  0  0  0  0  0  0  0  0  0  0  0
   -0.8203    2.4076    1.1957 N   0  0  0  0  0  0  0  0  0  0  0  0
   -1.9174    0.0979    0.5472 C   0  0  0  0  0  0  0  0  0  0  0  0
   -3.0283   -0.7011    0.6557 C   0  0  0  0  0  0  0  0  0  0  0  0
  1  2  3  0
  2  3  1  0
  3  4  2  0
  4  5  1  0
  5  6  2  0
  6  7  1  0
  7  8  1  0
  8  9  2  0
  9 10  1  0
 10 11  2  0
 11 12  1  0
 12 13  3  0
 11 14  1  0
 14 15  2  0
  7 16  1  0
 16 17  1  0
 17 18  2  0
 18 19  1  0
 19 20  2  0
  6 21  1  0
 21 22  2  0
 22  3  1  0
 15  8  1  0
 20 16  1  0
M  END
>  <zinc_id>  (122) 
ZINC000003778874

>  <smiles>  (122) 
N#Cc1ccc(C(c2ccc(C#N)cc2)n2cncn2)cc1

$$$$

     RDKit          3D

 19 19  0  0  0  0  0  0  0  0999 V2000
    5.6891    0.7201    0.4483 C   0  0  0  0  0  0  0  0  0  0  0  0
    4.2888    0.9310   -0.0382 C   0  0  0  0  0  0  0  0  0  0  0  0
    4.1736    1.0539   -1.5287 C   0  0  0  0  0  0  0  0  0  0  0  0
    3.3131   -0.0338    0.5289 C   0  0  0  0  0  0  0  0  0  0  0  0
    3.3907   -1.2767    0.2840 O   0  0  0  0  0  0  0  0  0  0  0  0
    2.0643    0.3745    1.0956 N   0  0  0  0  0  0  0  0  0  0  0  0
    0.8146   -0.1826    0.6871 C   0  0  0  0  0  0  0  0  0  0  0  0
    0.6033   -1.5184    0.4770 C   0  0  0  0  0  0  0  0  0  0  0  0
   -0.5939   -1.8800   -0.1241 C   0  0  0  0  0  0  0  0  0  0  0  0
   -1.6245   -0.9639   -0.2820 C   0  0  0  0  0  0  0  0  0  0  0  0
   -2.7168   -1.2124   -1.1748 N   0  0  0  0  0  0  0  0  0  0  0  0
   -3.5958   -2.0640   -0.9155 O   0  0  0  0  0  0  0  0  0  0  0  0
   -2.4743   -0.8873   -2.4986 O   0  0  0  0  0  0  0  0  0  0  0  0
   -1.4728    0.3522    0.1261 C   0  0  0  0  0  0  0  0  0  0  0  0
   -2.6302    1.2298    0.3790 C   0  0  0  0  0  0  0  0  0  0  0  0
   -3.8311    0.5785    0.2895 F   0  0  0  0  0  0  0  0  0  0  0  0
   -2.6462    2.3469   -0.4447 F   0  0  0  0  0  0  0  0  0  0  0  0
   -2.5235    1.7010    1.6843 F   0  0  0  0  0  0  0  0  0  0  0  0
   -0.2283    0.7312    0.5891 C   0  0  0  0  0  0  0  0  0  0  0  0
  1  2  1  0
  2  3  1  0
  2  4  1  0
  4  5  2  0
  4  6  1  0
  6  7  1  0
  7  8  2  0
  8  9  1  0
  9 10  2  0
 10 11  1  0
 11 12  2  0
 11 13  1  0
 10 14  1  0
 14 15  1  0
 15 16  1  0
 15 17  1  0
 15 18  1  0
 14 19  2  0
 19  7  1  0
M  CHG  2  11   1  13  -1
M  END
>  <zinc_id>  (123) 
ZINC000003812944

>  <smiles>  (123) 
CC(C)C(=O)Nc1ccc([N+](=O)[O-])c(C(F)(F)F)c1

$$$$

     RDKit          3D

 28 29  0  0  0  0  0  0  0  0999 V2000
   -3.6312    1.1007   -3.2656 C   0  0  0  0  0  0  0  0  0  0  0  0
   -4.7843    0.6988   -2.5305 O   0  0  0  0  0  0  0  0  0  0  0  0
   -4.5520    0.2417   -1.2301 C   0  0  0  0  0  0  0  0  0  0  0  0
   -3.5518   -0.6905   -0.9914 C   0  0  0  0  0  0  0  0  0  0  0  0
   -2.9867   -0.8443    0.2690 C   0  0  0  0  0  0  0  0  0  0  0  0
   -1.5838   -1.2238    0.4449 C   0  0  0  0  0  0  0  0  0  0  0  0
   -1.1854   -1.6931    1.5278 O   0  0  0  0  0  0  0  0  0  0  0  0
   -0.5779   -0.9009   -0.5227 N   0  0  0  0  0  0  0  0  0  0  0  0
    0.4992   -1.8368   -0.7580 C   0  0  0  0  0  0  0  0  0  0  0  0
    1.6821   -1.5628    0.1149 C   0  0  0  0  0  0  0  0  0  0  0  0
    2.2883   -2.6213    0.7805 C   0  0  0  0  0  0  0  0  0  0  0  0
    3.6617   -2.5941    0.9898 C   0  0  0  0  0  0  0  0  0  0  0  0
    4.4540   -1.5388    0.5914 C   0  0  0  0  0  0  0  0  0  0  0  0
    5.7358   -1.8286    0.1152 O   0  0  0  0  0  0  0  0  0  0  0  0
    6.6408   -0.7981   -0.2502 C   0  0  0  0  0  0  0  0  0  0  0  0
    6.4338    0.4214    0.6074 C   0  0  0  0  0  0  0  0  0  0  0  0
    6.4277    1.5772   -0.2532 N   0  0  0  0  0  0  0  0  0  0  0  0
    6.1535    2.8103    0.4397 C   0  0  0  0  0  0  0  0  0  0  0  0
    7.6093    1.6859   -1.0681 C   0  0  0  0  0  0  0  0  0  0  0  0
    3.7986   -0.3764    0.2103 C   0  0  0  0  0  0  0  0  0  0  0  0
    2.4300   -0.4188   -0.0258 C   0  0  0  0  0  0  0  0  0  0  0  0
   -3.7503   -0.3282    1.3096 C   0  0  0  0  0  0  0  0  0  0  0  0
   -4.6333    0.7180    1.0714 C   0  0  0  0  0  0  0  0  0  0  0  0
   -5.2835    1.3791    2.1168 O   0  0  0  0  0  0  0  0  0  0  0  0
   -6.6866    1.5129    2.1729 C   0  0  0  0  0  0  0  0  0  0  0  0
   -4.9289    1.1212   -0.2218 C   0  0  0  0  0  0  0  0  0  0  0  0
   -5.2161    2.4634   -0.4852 O   0  0  0  0  0  0  0  0  0  0  0  0
   -4.4628    3.5258    0.0649 C   0  0  0  0  0  0  0  0  0  0  0  0
  1  2  1  0
  2  3  1  0
  3  4  2  0
  4  5  1  0
  5  6  1  0
  6  7  2  0
  6  8  1  0
  8  9  1  0
  9 10  1  0
 10 11  2  0
 11 12  1  0
 12 13  2  0
 13 14  1  0
 14 15  1  0
 15 16  1  0
 16 17  1  0
 17 18  1  0
 17 19  1  0
 13 20  1  0
 20 21  2  0
  5 22  2  0
 22 23  1  0
 23 24  1  0
 24 25  1  0
 23 26  2  0
 26 27  1  0
 27 28  1  0
 26  3  1  0
 21 10  1  0
M  END
>  <zinc_id>  (124) 
ZINC000000538509

>  <smiles>  (124) 
COc1cc(C(=O)NCc2ccc(OCCN(C)C)cc2)cc(OC)c1OC

$$$$

     RDKit          3D

 15 15  0  0  0  0  0  0  0  0999 V2000
    1.8120   -0.2937    1.4992 N   0  0  0  0  0  0  0  0  0  0  0  0
    2.1110   -0.7594    0.0333 C   0  0  2  0  0  0  0  0  0  0  0  0
    3.3565    0.2364   -0.1343 C   0  0  0  0  0  0  0  0  0  0  0  0
    4.2594   -0.1318   -0.9037 O   0  0  0  0  0  0  0  0  0  0  0  0
    3.2125    1.5442    0.1724 O   0  0  0  0  0  0  0  0  0  0  0  0
    1.0301    0.3257   -0.7808 C   0  0  2  0  0  0  0  0  0  0  0  0
    0.8977    1.3353    0.3442 O   0  0  0  0  0  0  0  0  0  0  0  0
   -0.2608   -0.5578   -0.3777 C   0  0  0  0  0  0  0  0  0  0  0  0
   -1.1354   -0.6753   -1.4591 C   0  0  0  0  0  0  0  0  0  0  0  0
   -2.4709   -0.2940   -1.3462 C   0  0  0  0  0  0  0  0  0  0  0  0
   -3.0254   -0.0995   -0.0850 C   0  0  0  0  0  0  0  0  0  0  0  0
   -3.9484    0.9364    0.0985 O   0  0  0  0  0  0  0  0  0  0  0  0
   -2.2235   -0.5602    0.9577 C   0  0  0  0  0  0  0  0  0  0  0  0
   -2.7837   -0.5276    2.2209 O   0  0  0  0  0  0  0  0  0  0  0  0
   -0.8311   -0.4786    0.8310 C   0  0  0  0  0  0  0  0  0  0  0  0
  2  1  1  1
  2  3  1  0
  3  4  2  0
  3  5  1  0
  2  6  1  0
  6  7  1  1
  6  8  1  0
  8  9  2  0
  9 10  1  0
 10 11  2  0
 11 12  1  0
 11 13  1  0
 13 14  1  0
 13 15  2  0
 15  8  1  0
M  END
>  <zinc_id>  (125) 
ZINC000001482049

>  <smiles>  (125) 
N[C@H](C(=O)O)[C@H](O)c1ccc(O)c(O)c1

$$$$

     RDKit          3D

 33 35  0  0  0  0  0  0  0  0999 V2000
    6.6551    1.3386   -0.0133 C   0  0  0  0  0  0  0  0  0  0  0  0
    6.9053    0.5879   -0.8506 N   0  0  0  0  0  0  0  0  0  0  0  0
    6.5720   -0.8645   -0.3549 C   0  0  2  0  0  0  0  0  0  0  0  0
    6.0255   -1.3807   -1.7939 C   0  0  0  0  0  0  0  0  0  0  0  0
    5.0999   -0.3002    0.3204 C   0  0  2  0  0  0  0  0  0  0  0  0
    4.9081   -1.7350    1.1167 C   0  0  0  0  0  0  0  0  0  0  0  0
    3.8534   -1.2631    1.8533 C   0  0  0  0  0  0  0  0  0  0  0  0
    2.4584   -1.0395    1.0799 C   0  0  2  0  0  0  0  0  0  0  0  0
    2.5326   -2.3767    0.2694 N   0  0  0  0  0  0  0  0  0  0  0  0
    2.9807    0.0087   -0.2146 C   0  0  2  0  0  0  0  0  0  0  0  0
    2.1202   -0.6740   -1.2363 O   0  0  0  0  0  0  0  0  0  0  0  0
    0.7909   -0.0411   -1.3951 C   0  0  2  0  0  0  0  0  0  0  0  0
    1.2383    1.6046   -1.5563 C   0  0  2  0  0  0  0  0  0  0  0  0
    1.8036    2.0555   -0.1653 N   0  0  0  0  0  0  0  0  0  0  0  0
   -0.2350    2.1990   -1.4765 C   0  0  0  0  0  0  0  0  0  0  0  0
   -1.4343    1.8520   -0.5053 C   0  0  2  0  0  0  0  0  0  0  0  0
   -0.8546    2.3104    0.8907 N   0  0  0  0  0  0  0  0  0  0  0  0
   -1.3260    0.1408   -0.3770 C   0  0  2  0  0  0  0  0  0  0  0  0
   -1.9925    0.0749    0.9787 O   0  0  0  0  0  0  0  0  0  0  0  0
   -3.1486   -0.8496    0.5462 C   0  0  2  0  0  0  0  0  0  0  0  0
   -3.4850    0.0911   -0.6037 O   0  0  0  0  0  0  0  0  0  0  0  0
   -4.2706   -0.8476   -1.2738 C   0  0  0  0  0  0  0  0  0  0  0  0
   -5.2471   -1.3222   -0.3423 C   0  0  2  0  0  0  0  0  0  0  0  0
   -5.1208   -2.6031    0.3056 C   0  0  0  0  0  0  0  0  0  0  0  0
   -6.4824   -1.3584   -1.0274 O   0  0  0  0  0  0  0  0  0  0  0  0
   -5.6968   -0.1907    0.7440 C   0  0  2  0  0  0  0  0  0  0  0  0
   -5.4223    1.0193   -0.2095 N   0  0  0  0  0  0  0  0  0  0  0  0
   -5.9803    2.1908    0.3054 C   0  0  0  0  0  0  0  0  0  0  0  0
   -4.2538   -0.1457    1.6895 C   0  0  2  0  0  0  0  0  0  0  0  0
   -3.9221    1.3028    1.4545 O   0  0  0  0  0  0  0  0  0  0  0  0
    0.2474   -0.1302    0.2243 C   0  0  2  0  0  0  0  0  0  0  0  0
    0.5361    1.2034    0.7560 O   0  0  0  0  0  0  0  0  0  0  0  0
    4.1448   -0.8576   -0.6951 O   0  0  0  0  0  0  0  0  0  0  0  0
  1  2  1  0
  3  2  1  6
  3  4  1  0
  3  5  1  0
  5  6  1  1
  6  7  1  0
  7  8  1  0
  8  9  1  6
  8 10  1  0
 10 11  1  6
 12 11  1  1
 12 13  1  0
 13 14  1  1
 13 15  1  0
 15 16  1  0
 16 17  1  1
 16 18  1  0
 18 19  1  1
 20 19  1  1
 20 21  1  0
 21 22  1  0
 22 23  1  0
 23 24  1  1
 23 25  1  0
 23 26  1  0
 26 27  1  6
 27 28  1  0
 26 29  1  0
 29 30  1  6
 18 31  1  0
 31 32  1  1
 10 33  1  0
 33  5  1  0
 31 12  1  0
 29 20  1  0
M  END
>  <zinc_id>  (126) 
ZINC000242437513

>  <smiles>  (126) 
CN[C@H](C)[C@@H]1CC[C@H](N)[C@H](O[C@@H]2[C@H](N)C[C@H](N)[C@H](O[C@@H]3OC[C@](C)(O)[C@H](NC)[C@@H]3O)[C@@H]2O)O1

$$$$

     RDKit          3D

 26 27  0  0  0  0  0  0  0  0999 V2000
   -4.9729    0.4609    4.2291 C   0  0  0  0  0  0  0  0  0  0  0  0
   -5.6377    0.3973    3.1386 C   0  0  0  0  0  0  0  0  0  0  0  0
   -6.1686    0.1607    2.0689 C   0  0  0  0  0  0  0  0  0  0  0  0
   -6.4745   -0.0121    0.6351 C   0  0  0  0  0  0  0  0  0  0  0  0
   -5.3251   -1.0468    0.1190 C   0  0  1  0  0  0  0  0  0  0  0  0
   -5.1886   -0.3461   -1.3467 C   0  0  0  0  0  0  0  0  0  0  0  0
   -4.0345   -0.1466    0.8771 C   0  0  2  0  0  0  0  0  0  0  0  0
   -4.4363    1.1931    0.2365 O   0  0  0  0  0  0  0  0  0  0  0  0
   -2.9938   -0.4873   -0.3442 C   0  0  0  0  0  0  0  0  0  0  0  0
   -1.8744    0.2531   -0.2942 C   0  0  0  0  0  0  0  0  0  0  0  0
   -0.8463   -0.4997   -1.2604 C   0  0  1  0  0  0  0  0  0  0  0  0
   -0.7267    0.8335   -2.3346 C   0  0  2  0  0  0  0  0  0  0  0  0
   -1.4451    0.0613   -3.4481 O   0  0  0  0  0  0  0  0  0  0  0  0
    0.7607    0.1989   -2.7663 C   0  0  0  0  0  0  0  0  0  0  0  0
    1.0547    1.1454   -1.4552 C   0  0  2  0  0  0  0  0  0  0  0  0
    2.6266    0.7105   -1.3593 C   0  0  0  0  0  0  0  0  0  0  0  0
    2.6270   -0.5169   -0.6127 C   0  0  0  0  0  0  0  0  0  0  0  0
    3.4406   -0.7521    0.4095 C   0  0  0  0  0  0  0  0  0  0  0  0
    4.8940   -0.6850    0.0329 C   0  0  0  0  0  0  0  0  0  0  0  0
    5.7048   -1.2705    1.1824 C   0  0  0  0  0  0  0  0  0  0  0  0
    6.2064   -0.0514    1.9501 C   0  0  0  0  0  0  0  0  0  0  0  0
    6.7612    0.9160    0.9535 C   0  0  0  0  0  0  0  0  0  0  0  0
    6.0493    1.6398    0.2246 O   0  0  0  0  0  0  0  0  0  0  0  0
    8.0979    0.7633    0.6063 O   0  0  0  0  0  0  0  0  0  0  0  0
    1.3925   -1.2072   -1.0739 C   0  0  0  0  0  0  0  0  0  0  0  0
    0.5087   -0.0406   -0.3679 C   0  0  2  0  0  0  0  0  0  0  0  0
  1  2  1  0
  2  3  3  0
  3  4  1  0
  5  4  1  1
  5  6  1  0
  5  7  1  0
  7  8  1  6
  7  9  1  0
  9 10  2  0
 11 10  1  1
 11 12  1  0
 12 13  1  6
 12 14  1  0
 15 14  1  6
 15 16  1  0
 16 17  1  0
 17 18  2  0
 18 19  1  0
 19 20  1  0
 20 21  1  0
 21 22  1  0
 22 23  2  0
 22 24  1  0
 17 25  1  0
 26 25  1  6
 26 11  1  0
 26 15  1  0
M  END
>  <zinc_id>  (127) 
ZINC000003784120

>  <smiles>  (127) 
CC#CC[C@@H](C)[C@H](O)/C=C/[C@@H]1[C@H]2C/C(=C/CCCC(=O)O)C[C@H]2C[C@H]1O

$$$$

     RDKit          3D

 32 32  0  0  0  0  0  0  0  0999 V2000
    0.1196    6.5230    0.2815 C   0  0  0  0  0  0  0  0  0  0  0  0
   -0.5602    6.1245    0.4061 O   0  0  0  0  0  0  0  0  0  0  0  0
   -1.1282    5.2569   -0.5344 C   0  0  0  0  0  0  0  0  0  0  0  0
   -0.3153    4.0221   -0.7025 C   0  0  0  0  0  0  0  0  0  0  0  0
    0.0338    3.6163   -1.8483 O   0  0  0  0  0  0  0  0  0  0  0  0
    0.0683    3.1961    0.4009 N   0  0  0  0  0  0  0  0  0  0  0  0
    0.0263    1.7911    0.2778 C   0  0  0  0  0  0  0  0  0  0  0  0
    1.1920    1.0682    0.4445 C   0  0  0  0  0  0  0  0  0  0  0  0
    3.0568    1.9754    0.7941 I   0  0  0  0  0  0  0  0  0  0  0  0
    1.2267   -0.2538    0.0236 C   0  0  0  0  0  0  0  0  0  0  0  0
    2.2645   -1.1888    0.4240 C   0  0  0  0  0  0  0  0  0  0  0  0
    1.9466   -2.0155    1.3329 O   0  0  0  0  0  0  0  0  0  0  0  0
    3.6121   -1.1267    0.0136 N   0  0  0  0  0  0  0  0  0  0  0  0
    4.5531   -2.0934    0.5797 C   0  0  0  0  0  0  0  0  0  0  0  0
    5.2635   -2.6837   -0.8032 C   0  0  2  0  0  0  0  0  0  0  0  0
    6.3363   -3.4149    0.0048 O   0  0  0  0  0  0  0  0  0  0  0  0
    6.2716   -1.3902   -1.0449 C   0  0  0  0  0  0  0  0  0  0  0  0
    6.0140   -0.4421   -0.1274 O   0  0  0  0  0  0  0  0  0  0  0  0
    0.1269   -0.8063   -0.6223 C   0  0  0  0  0  0  0  0  0  0  0  0
    0.4944   -2.2448   -2.1323 I   0  0  0  0  0  0  0  0  0  0  0  0
   -1.1156   -0.1935   -0.5084 C   0  0  0  0  0  0  0  0  0  0  0  0
   -2.2851   -0.8306   -1.1038 C   0  0  0  0  0  0  0  0  0  0  0  0
   -3.1937   -0.0299   -1.4808 O   0  0  0  0  0  0  0  0  0  0  0  0
   -2.7147   -2.1478   -0.7396 N   0  0  0  0  0  0  0  0  0  0  0  0
   -1.8902   -2.9237    0.1845 C   0  0  0  0  0  0  0  0  0  0  0  0
   -4.1335   -2.4909   -0.6236 C   0  0  0  0  0  0  0  0  0  0  0  0
   -4.3071   -2.1063    0.9840 C   0  0  1  0  0  0  0  0  0  0  0  0
   -5.5709   -1.2921    0.7103 O   0  0  0  0  0  0  0  0  0  0  0  0
   -5.1644   -3.4920    1.2946 C   0  0  0  0  0  0  0  0  0  0  0  0
   -6.1190   -3.5684    0.3094 O   0  0  0  0  0  0  0  0  0  0  0  0
   -1.1434    1.0858    0.0222 C   0  0  0  0  0  0  0  0  0  0  0  0
   -2.9650    2.0760    0.2603 I   0  0  0  0  0  0  0  0  0  0  0  0
  1  2  1  0
  2  3  1  0
  3  4  1  0
  4  5  2  0
  4  6  1  0
  6  7  1  0
  7  8  2  0
  8  9  1  0
  8 10  1  0
 10 11  1  0
 11 12  2  0
 11 13  1  0
 13 14  1  0
 15 14  1  1
 15 16  1  0
 15 17  1  0
 17 18  1  0
 10 19  2  0
 19 20  1  0
 19 21  1  0
 21 22  1  0
 22 23  2  0
 22 24  1  0
 24 25  1  0
 24 26  1  0
 27 26  1  6
 27 28  1  0
 27 29  1  0
 29 30  1  0
 21 31  2  0
 31 32  1  0
 31  7  1  0
M  END
>  <zinc_id>  (128) 
ZINC000003830958

>  <smiles>  (128) 
COCC(=O)Nc1c(I)c(C(=O)NC[C@H](O)CO)c(I)c(C(=O)N(C)C[C@@H](O)CO)c1I

$$$$

     RDKit          3D

 31 35  0  0  0  0  0  0  0  0999 V2000
   -4.7141   -1.8744   -0.8889 C   0  0  0  0  0  0  0  0  0  0  0  0
   -3.4687   -1.7545   -0.3180 C   0  0  0  0  0  0  0  0  0  0  0  0
   -3.0583   -3.0506    0.3440 C   0  0  0  0  0  0  0  0  0  0  0  0
   -2.5859   -1.4075   -1.3120 O   0  0  0  0  0  0  0  0  0  0  0  0
   -2.9199    0.0666   -1.4434 C   0  0  2  0  0  0  0  0  0  0  0  0
   -1.4097    0.5886   -1.8805 C   0  0  0  0  0  0  0  0  0  0  0  0
   -0.6197   -0.4177   -0.9044 C   0  0  1  0  0  0  0  0  0  0  0  0
    0.7788    0.5031   -0.6530 C   0  0  2  0  0  0  0  0  0  0  0  0
    1.4598    0.2304   -2.1001 C   0  0  0  0  0  0  0  0  0  0  0  0
    2.8793    0.6250   -1.8167 C   0  0  0  0  0  0  0  0  0  0  0  0
    3.2603    0.6486   -0.3980 C   0  0  0  0  0  0  0  0  0  0  0  0
    4.3371    1.3016   -0.0062 C   0  0  0  0  0  0  0  0  0  0  0  0
    5.0972    0.6386    1.0655 C   0  0  0  0  0  0  0  0  0  0  0  0
    5.9546    1.2263    1.7647 O   0  0  0  0  0  0  0  0  0  0  0  0
    5.0821   -0.8570    0.9854 C   0  0  0  0  0  0  0  0  0  0  0  0
    3.6862   -1.3865    0.7642 C   0  0  0  0  0  0  0  0  0  0  0  0
    2.6713   -0.2490    0.6598 C   0  0  1  0  0  0  0  0  0  0  0  0
    2.6287    0.6052    1.8893 C   0  0  0  0  0  0  0  0  0  0  0  0
    1.5017   -0.7342    0.0639 C   0  0  2  0  0  0  0  0  0  0  0  0
    1.7159   -1.7439   -0.8206 F   0  0  0  0  0  0  0  0  0  0  0  0
    0.3879   -1.4755    0.9897 C   0  0  1  0  0  0  0  0  0  0  0  0
    1.2366   -1.4294    2.2515 O   0  0  0  0  0  0  0  0  0  0  0  0
   -0.4685   -0.1369    1.4435 C   0  0  0  0  0  0  0  0  0  0  0  0
   -1.2803    0.3389    0.3638 C   0  0  1  0  0  0  0  0  0  0  0  0
   -0.9615    1.8326    0.2724 C   0  0  0  0  0  0  0  0  0  0  0  0
   -2.6755    0.2645    0.1695 C   0  0  1  0  0  0  0  0  0  0  0  0
   -3.4460    1.5471    0.3380 C   0  0  0  0  0  0  0  0  0  0  0  0
   -3.3337    2.0028    1.4760 O   0  0  0  0  0  0  0  0  0  0  0  0
   -3.4888    2.5916   -0.7404 C   0  0  0  0  0  0  0  0  0  0  0  0
   -4.8545    2.2958   -1.8654 Cl  0  0  0  0  0  0  0  0  0  0  0  0
   -3.3923   -0.7905    0.6807 O   0  0  0  0  0  0  0  0  0  0  0  0
  1  2  1  0
  2  3  1  0
  2  4  1  0
  5  4  1  1
  5  6  1  0
  7  6  1  6
  7  8  1  0
  8  9  1  6
  9 10  1  0
 10 11  1  0
 11 12  2  0
 12 13  1  0
 13 14  2  0
 13 15  1  0
 15 16  1  0
 16 17  1  0
 17 18  1  1
 17 19  1  0
 19 20  1  6
 19 21  1  0
 21 22  1  1
 21 23  1  0
 23 24  1  0
 24 25  1  6
 24 26  1  0
 26 27  1  1
 27 28  2  0
 27 29  1  0
 29 30  1  0
 26 31  1  0
 31  2  1  0
 26  5  1  0
 24  7  1  0
 19  8  1  0
 17 11  1  0
M  END
>  <zinc_id>  (129) 
ZINC000004213474

>  <smiles>  (129) 
CC1(C)O[C@@H]2C[C@H]3[C@@H]4CCC5=CC(=O)CC[C@]5(C)[C@@]4(F)[C@@H](O)C[C@]3(C)[C@]2(C(=O)CCl)O1

$$$$

     RDKit          3D

  9  8  0  0  0  0  0  0  0  0999 V2000
   -1.9091    1.4420   -0.6686 O   0  0  0  0  0  0  0  0  0  0  0  0
   -1.4224   -0.1389   -0.1725 Si  0  0  0  0  0  4  0  0  0  0  0  0
   -2.5200   -1.3068   -0.8160 O   0  0  0  0  0  0  0  0  0  0  0  0
   -1.4412   -0.3046    1.5218 O   0  0  0  0  0  0  0  0  0  0  0  0
    0.0870   -0.4523   -0.8762 O   0  0  0  0  0  0  0  0  0  0  0  0
    1.4128    0.0701    0.0361 Si  0  0  0  0  0  4  0  0  0  0  0  0
    1.3487   -0.4179    1.6777 O   0  0  0  0  0  0  0  0  0  0  0  0
    1.6267    1.7812   -0.0585 O   0  0  0  0  0  0  0  0  0  0  0  0
    2.8174   -0.6729   -0.6437 O   0  0  0  0  0  0  0  0  0  0  0  0
  1  2  1  0
  2  3  1  0
  2  4  1  0
  2  5  1  0
  5  6  1  0
  6  7  1  0
  6  8  1  0
  6  9  1  0
M  END
>  <zinc_id>  (130) 
ZINC000247316127

>  <smiles>  (130) 
O[Si](O)(O)O[Si](O)(O)O

$$$$

     RDKit          3D

 40 39  0  0  0  0  0  0  0  0999 V2000
  -15.0533   -0.6665   -0.7932 C   0  0  0  0  0  0  0  0  0  0  0  0
  -13.5626   -0.5109   -0.5196 C   0  0  0  0  0  0  0  0  0  0  0  0
  -13.2770    0.9582   -0.3582 C   0  0  0  0  0  0  0  0  0  0  0  0
  -11.8228    1.2470   -0.6177 C   0  0  0  0  0  0  0  0  0  0  0  0
  -10.9400    0.9611    0.5644 C   0  0  0  0  0  0  0  0  0  0  0  0
  -11.0054   -0.5202    0.9040 C   0  0  0  0  0  0  0  0  0  0  0  0
   -9.6365   -1.1189    1.0906 C   0  0  0  0  0  0  0  0  0  0  0  0
   -8.6299   -0.6177    0.0917 C   0  0  0  0  0  0  0  0  0  0  0  0
   -8.0382    0.7053    0.5128 C   0  0  0  0  0  0  0  0  0  0  0  0
   -7.8253    0.6264    2.0202 C   0  0  0  0  0  0  0  0  0  0  0  0
   -7.1091   -0.6641    2.3203 C   0  0  0  0  0  0  0  0  0  0  0  0
   -5.9005   -0.4444    3.1938 C   0  0  0  0  0  0  0  0  0  0  0  0
   -4.9801    0.3419    2.4919 O   0  0  0  0  0  0  0  0  0  0  0  0
   -4.8349   -0.1280    1.1786 C   0  0  0  0  0  0  0  0  0  0  0  0
   -3.4427    0.2051    0.6604 C   0  0  0  0  0  0  0  0  0  0  0  0
   -3.3200   -0.3951   -0.5974 O   0  0  0  0  0  0  0  0  0  0  0  0
   -2.4039    0.2846   -1.3841 C   0  0  0  0  0  0  0  0  0  0  0  0
   -1.8433   -0.6029   -2.4833 C   0  0  0  0  0  0  0  0  0  0  0  0
   -1.0058   -1.5820   -1.9470 O   0  0  0  0  0  0  0  0  0  0  0  0
   -0.0090   -0.8967   -1.2344 C   0  0  0  0  0  0  0  0  0  0  0  0
    0.2972    0.3545   -2.0458 C   0  0  0  0  0  0  0  0  0  0  0  0
    0.6337   -0.0570   -3.3316 O   0  0  0  0  0  0  0  0  0  0  0  0
    1.9733   -0.3781   -3.4502 C   0  0  0  0  0  0  0  0  0  0  0  0
    2.8982    0.7691   -3.1627 C   0  0  0  0  0  0  0  0  0  0  0  0
    2.6072    1.4389   -1.9877 O   0  0  0  0  0  0  0  0  0  0  0  0
    3.7540    1.7058   -1.2241 C   0  0  0  0  0  0  0  0  0  0  0  0
    3.9017    0.5463   -0.2461 C   0  0  0  0  0  0  0  0  0  0  0  0
    3.8746   -0.6253   -1.0118 O   0  0  0  0  0  0  0  0  0  0  0  0
    5.1952   -1.0827   -1.1298 C   0  0  0  0  0  0  0  0  0  0  0  0
    5.7504   -1.1168    0.2887 C   0  0  0  0  0  0  0  0  0  0  0  0
    7.1327   -1.0176    0.2893 O   0  0  0  0  0  0  0  0  0  0  0  0
    7.5034   -0.4370    1.5020 C   0  0  0  0  0  0  0  0  0  0  0  0
    8.6423    0.5480    1.2935 C   0  0  0  0  0  0  0  0  0  0  0  0
    9.8042   -0.0707    1.7329 O   0  0  0  0  0  0  0  0  0  0  0  0
   10.9333    0.3897    1.0726 C   0  0  0  0  0  0  0  0  0  0  0  0
   11.9898   -0.6989    1.1554 C   0  0  0  0  0  0  0  0  0  0  0  0
   13.1279   -0.2980    0.4747 O   0  0  0  0  0  0  0  0  0  0  0  0
   13.7316    0.7075    1.2285 C   0  0  0  0  0  0  0  0  0  0  0  0
   14.8258    0.0670    2.0373 C   0  0  0  0  0  0  0  0  0  0  0  0
   16.0640    0.1198    1.4209 O   0  0  0  0  0  0  0  0  0  0  0  0
  1  2  1  0
  2  3  1  0
  3  4  1  0
  4  5  1  0
  5  6  1  0
  6  7  1  0
  7  8  1  0
  8  9  1  0
  9 10  1  0
 10 11  1  0
 11 12  1  0
 12 13  1  0
 13 14  1  0
 14 15  1  0
 15 16  1  0
 16 17  1  0
 17 18  1  0
 18 19  1  0
 19 20  1  0
 20 21  1  0
 21 22  1  0
 22 23  1  0
 23 24  1  0
 24 25  1  0
 25 26  1  0
 26 27  1  0
 27 28  1  0
 28 29  1  0
 29 30  1  0
 30 31  1  0
 31 32  1  0
 32 33  1  0
 33 34  1  0
 34 35  1  0
 35 36  1  0
 36 37  1  0
 37 38  1  0
 38 39  1  0
 39 40  1  0
M  END
>  <zinc_id>  (131) 
ZINC000008214662

>  <smiles>  (131) 
CCCCCCCCCCCCOCCOCCOCCOCCOCCOCCOCCOCCOCCO

$$$$

     RDKit          3D

 31 33  0  0  0  0  0  0  0  0999 V2000
   -5.9658   -0.2236    1.0745 C   0  0  0  0  0  0  0  0  0  0  0  0
   -7.1328    0.2267    0.2359 C   0  0  0  0  0  0  0  0  0  0  0  0
   -8.3802   -0.3802    0.8329 C   0  0  0  0  0  0  0  0  0  0  0  0
   -6.9902   -0.1883   -1.2207 C   0  0  0  0  0  0  0  0  0  0  0  0
   -6.1390    0.6707   -1.9354 O   0  0  0  0  0  0  0  0  0  0  0  0
   -4.7610    0.4660   -2.0503 C   0  0  0  0  0  0  0  0  0  0  0  0
   -3.8717    1.3043   -1.3888 C   0  0  0  0  0  0  0  0  0  0  0  0
   -2.7161    0.8159   -0.7920 C   0  0  0  0  0  0  0  0  0  0  0  0
   -2.4261   -0.5426   -0.8349 C   0  0  0  0  0  0  0  0  0  0  0  0
   -1.8291   -1.2216    0.3579 C   0  0  0  0  0  0  0  0  0  0  0  0
   -0.7388   -0.3994    0.8751 N   0  0  0  0  0  0  0  0  0  0  0  0
    0.3234    0.0090    0.0054 C   0  0  0  0  0  0  0  0  0  0  0  0
    0.1966   -0.3236   -1.2119 O   0  0  0  0  0  0  0  0  0  0  0  0
    1.5075    0.6284    0.4648 N   0  0  0  0  0  0  0  0  0  0  0  0
    2.1820    1.5562   -0.4395 C   0  0  0  0  0  0  0  0  0  0  0  0
    3.3556    0.8836   -1.0803 C   0  0  0  0  0  0  0  0  0  0  0  0
    4.6371    0.9874   -0.5521 C   0  0  0  0  0  0  0  0  0  0  0  0
    5.4522   -0.1354   -0.4846 C   0  0  0  0  0  0  0  0  0  0  0  0
    5.0833   -1.3336   -1.0828 C   0  0  0  0  0  0  0  0  0  0  0  0
    5.4699   -2.5193   -0.5382 F   0  0  0  0  0  0  0  0  0  0  0  0
    4.0313   -1.2464   -1.9865 C   0  0  0  0  0  0  0  0  0  0  0  0
    3.1848   -0.1449   -1.9994 C   0  0  0  0  0  0  0  0  0  0  0  0
    1.7892    0.6183    1.8766 C   0  0  0  0  0  0  0  0  0  0  0  0
    1.8538   -0.7627    2.4662 C   0  0  0  0  0  0  0  0  0  0  0  0
    3.2544   -1.3009    2.5734 C   0  0  0  0  0  0  0  0  0  0  0  0
    4.1852   -0.3614    3.1450 N   0  0  0  0  0  0  0  0  0  0  0  0
    5.2541   -0.1553    2.1722 C   0  0  0  0  0  0  0  0  0  0  0  0
    3.5552    0.8852    3.5257 C   0  0  0  0  0  0  0  0  0  0  0  0
    2.9586    1.4820    2.2587 C   0  0  0  0  0  0  0  0  0  0  0  0
   -3.0919   -1.2562   -1.8243 C   0  0  0  0  0  0  0  0  0  0  0  0
   -4.2317   -0.7573   -2.4426 C   0  0  0  0  0  0  0  0  0  0  0  0
  1  2  1  0
  2  3  1  0
  2  4  1  0
  4  5  1  0
  5  6  1  0
  6  7  2  0
  7  8  1  0
  8  9  2  0
  9 10  1  0
 10 11  1  0
 11 12  1  0
 12 13  2  0
 12 14  1  0
 14 15  1  0
 15 16  1  0
 16 17  2  0
 17 18  1  0
 18 19  2  0
 19 20  1  0
 19 21  1  0
 21 22  2  0
 14 23  1  0
 23 24  1  0
 24 25  1  0
 25 26  1  0
 26 27  1  0
 26 28  1  0
 28 29  1  0
  9 30  1  0
 30 31  2  0
 31  6  1  0
 22 16  1  0
 29 23  1  0
M  END
>  <zinc_id>  (132) 
ZINC000016159083

>  <smiles>  (132) 
CC(C)COc1ccc(CNC(=O)N(Cc2ccc(F)cc2)C2CCN(C)CC2)cc1

$$$$

     RDKit          3D

 37 37  0  0  0  0  0  0  0  0999 V2000
    7.1750    1.8411   -2.3907 C   0  0  0  0  0  0  0  0  0  0  0  0
    5.8963    2.3992   -2.9510 C   0  0  0  0  0  0  0  0  0  0  0  0
    5.2888    1.4403   -3.8022 O   0  0  0  0  0  0  0  0  0  0  0  0
    4.1678    0.7311   -3.3532 C   0  0  0  0  0  0  0  0  0  0  0  0
    2.9661    1.3812   -3.1154 C   0  0  0  0  0  0  0  0  0  0  0  0
    2.1459    1.0021   -2.0598 C   0  0  0  0  0  0  0  0  0  0  0  0
    2.5433    0.0367   -1.1436 C   0  0  0  0  0  0  0  0  0  0  0  0
    2.2288    0.1706    0.3166 C   0  0  0  0  0  0  0  0  0  0  0  0
    1.0133   -0.9667    0.4468 C   0  0  2  0  0  0  0  0  0  0  0  0
   -0.1195    0.2060    0.8143 C   0  0  0  0  0  0  0  0  0  0  0  0
   -0.9196    0.1139   -0.3982 N   0  0  0  0  0  0  0  0  0  0  0  0
   -1.8944    1.1591   -0.4035 C   0  0  0  0  0  0  0  0  0  0  0  0
   -2.8392    1.0081    0.7831 C   0  0  0  0  0  0  0  0  0  0  0  0
   -4.1485    1.4592    0.3270 N   0  0  0  0  0  0  0  0  0  0  0  0
   -4.5250    0.6520   -0.8260 C   0  0  0  0  0  0  0  0  0  0  0  0
   -5.2546    1.5402   -1.7835 C   0  0  0  0  0  0  0  0  0  0  0  0
   -5.6304    1.0005   -2.8655 O   0  0  0  0  0  0  0  0  0  0  0  0
   -5.1995    2.9096   -1.6594 O   0  0  0  0  0  0  0  0  0  0  0  0
   -5.1480    1.3238    1.3845 C   0  0  0  0  0  0  0  0  0  0  0  0
   -6.1843    0.3240    1.0515 C   0  0  0  0  0  0  0  0  0  0  0  0
   -5.8789   -0.8703    0.8150 O   0  0  0  0  0  0  0  0  0  0  0  0
   -7.5090    0.5962    1.3828 O   0  0  0  0  0  0  0  0  0  0  0  0
   -1.5107   -1.2097   -0.3932 C   0  0  0  0  0  0  0  0  0  0  0  0
   -1.0475   -1.9163   -1.6018 C   0  0  0  0  0  0  0  0  0  0  0  0
   -0.8062   -3.1497   -1.5179 O   0  0  0  0  0  0  0  0  0  0  0  0
   -1.0525   -1.2469   -2.8022 O   0  0  0  0  0  0  0  0  0  0  0  0
    1.3546   -1.2376    1.9843 N   0  0  0  0  0  0  0  0  0  0  0  0
    1.3830    0.0446    2.6241 C   0  0  0  0  0  0  0  0  0  0  0  0
    0.8718   -0.1686    4.0129 C   0  0  0  0  0  0  0  0  0  0  0  0
    1.1372    0.6176    4.9634 O   0  0  0  0  0  0  0  0  0  0  0  0
    0.1876   -1.3307    4.3829 O   0  0  0  0  0  0  0  0  0  0  0  0
    2.7499   -1.6518    1.8406 C   0  0  0  0  0  0  0  0  0  0  0  0
    3.2547   -2.0648    3.1591 C   0  0  0  0  0  0  0  0  0  0  0  0
    4.1455   -1.3718    3.7287 O   0  0  0  0  0  0  0  0  0  0  0  0
    3.3320   -3.4429    3.3841 O   0  0  0  0  0  0  0  0  0  0  0  0
    3.5355   -0.8229   -1.6055 C   0  0  0  0  0  0  0  0  0  0  0  0
    4.2909   -0.5062   -2.7288 C   0  0  0  0  0  0  0  0  0  0  0  0
  1  2  1  0
  2  3  1  0
  3  4  1  0
  4  5  2  0
  5  6  1  0
  6  7  2  0
  7  8  1  0
  9  8  1  6
  9 10  1  0
 10 11  1  0
 11 12  1  0
 12 13  1  0
 13 14  1  0
 14 15  1  0
 15 16  1  0
 16 17  2  0
 16 18  1  0
 14 19  1  0
 19 20  1  0
 20 21  2  0
 20 22  1  0
 11 23  1  0
 23 24  1  0
 24 25  2  0
 24 26  1  0
  9 27  1  0
 27 28  1  0
 28 29  1  0
 29 30  2  0
 29 31  1  0
 27 32  1  0
 32 33  1  0
 33 34  2  0
 33 35  1  0
  7 36  1  0
 36 37  2  0
 37  4  1  0
M  END
>  <zinc_id>  (133) 
ZINC000022851765

>  <smiles>  (133) 
CCOc1ccc(C[C@H](CN(CCN(CC(=O)O)CC(=O)O)CC(=O)O)N(CC(=O)O)CC(=O)O)cc1

$$$$

     RDKit          3D

 51 55  0  0  0  0  0  0  0  0999 V2000
   -5.8878    6.6890    0.2317 C   0  0  0  0  0  0  0  0  0  0  0  0
   -5.8352    6.7578    0.1754 C   0  0  0  0  0  0  0  0  0  0  0  0
   -4.3493    6.9308   -0.0512 C   0  0  0  0  0  0  0  0  0  0  0  0
   -3.6537    5.7761   -0.6194 C   0  0  0  0  0  0  0  0  0  0  0  0
   -4.0319    4.4692   -0.0588 C   0  0  0  0  0  0  0  0  0  0  0  0
   -4.3238    3.5703   -0.8391 O   0  0  0  0  0  0  0  0  0  0  0  0
   -3.6659    3.9988    1.1759 O   0  0  0  0  0  0  0  0  0  0  0  0
   -2.7241    3.1651    1.5688 C   0  0  0  0  0  0  0  0  0  0  0  0
   -2.2571    2.0269    0.7954 C   0  0  0  0  0  0  0  0  0  0  0  0
   -3.2800    1.5805    0.3272 O   0  0  0  0  0  0  0  0  0  0  0  0
   -0.9599    2.0312    0.0258 C   0  0  2  0  0  0  0  0  0  0  0  0
   -1.0078    3.2607   -0.6618 O   0  0  0  0  0  0  0  0  0  0  0  0
   -1.1906    0.9179   -1.0012 C   0  0  0  0  0  0  0  0  0  0  0  0
   -1.1755   -0.1509    0.0543 C   0  0  0  0  0  0  0  0  0  0  0  0
   -2.2072   -1.0577    0.0626 C   0  0  0  0  0  0  0  0  0  0  0  0
   -3.2852   -1.0515   -0.8068 O   0  0  0  0  0  0  0  0  0  0  0  0
   -1.9856   -2.2667    0.7054 C   0  0  0  0  0  0  0  0  0  0  0  0
   -0.6761   -2.6926    0.9173 C   0  0  0  0  0  0  0  0  0  0  0  0
    0.2877   -1.6952    0.9778 C   0  0  0  0  0  0  0  0  0  0  0  0
    1.6014   -2.0929    0.9589 O   0  0  0  0  0  0  0  0  0  0  0  0
   -0.1656   -0.3819    0.8705 C   0  0  0  0  0  0  0  0  0  0  0  0
    0.9883    0.7172    1.2006 C   0  0  1  0  0  0  0  0  0  0  0  0
    1.6859    0.4444   -0.1226 O   0  0  0  0  0  0  0  0  0  0  0  0
    1.9370    1.8218   -0.7409 C   0  0  2  0  0  0  0  0  0  0  0  0
    2.6950    1.0654   -1.9890 C   0  0  0  0  0  0  0  0  0  0  0  0
    4.1569    0.5238   -1.6221 C   0  0  2  0  0  0  0  0  0  0  0  0
    4.1300    0.2865   -0.0633 N   0  0  0  0  0  0  0  0  0  0  0  0
    5.3768    0.0010    0.5286 C   0  0  0  0  0  0  0  0  0  0  0  0
    5.9729   -0.9687   -0.0433 O   0  0  0  0  0  0  0  0  0  0  0  0
    6.1524    0.6473    1.5702 C   0  0  0  0  0  0  0  0  0  0  0  0
    5.6948    1.8212    2.0824 F   0  0  0  0  0  0  0  0  0  0  0  0
    7.3728    0.9682    0.9684 F   0  0  0  0  0  0  0  0  0  0  0  0
    6.4298   -0.1952    2.6072 F   0  0  0  0  0  0  0  0  0  0  0  0
    5.0309    2.0028   -1.6033 C   0  0  1  0  0  0  0  0  0  0  0  0
    4.5731    2.3522   -2.9873 O   0  0  0  0  0  0  0  0  0  0  0  0
    4.0012    3.0748   -0.7316 C   0  0  1  0  0  0  0  0  0  0  0  0
    2.9339    3.4683   -1.9270 C   0  0  0  0  0  0  0  0  0  0  0  0
    3.2095    2.0594    0.0343 O   0  0  0  0  0  0  0  0  0  0  0  0
    0.2100    2.0882    0.7474 C   0  0  0  0  0  0  0  0  0  0  0  0
   -0.3367   -4.0924    0.6027 C   0  0  0  0  0  0  0  0  0  0  0  0
    0.7403   -4.3002    0.0196 O   0  0  0  0  0  0  0  0  0  0  0  0
   -1.4542   -5.0361    0.4201 C   0  0  0  0  0  0  0  0  0  0  0  0
   -1.3312   -6.1260   -0.4495 C   0  0  0  0  0  0  0  0  0  0  0  0
   -0.5699   -5.8795   -1.5616 O   0  0  0  0  0  0  0  0  0  0  0  0
    0.6699   -6.3475   -1.9596 C   0  0  0  0  0  0  0  0  0  0  0  0
   -2.3826   -7.0322   -0.3813 C   0  0  0  0  0  0  0  0  0  0  0  0
   -3.3444   -6.8942    0.6153 C   0  0  0  0  0  0  0  0  0  0  0  0
   -3.6952   -5.5947    0.9682 C   0  0  0  0  0  0  0  0  0  0  0  0
   -2.7315   -4.6373    0.8174 C   0  0  0  0  0  0  0  0  0  0  0  0
   -3.0841   -3.2138    0.9619 C   0  0  0  0  0  0  0  0  0  0  0  0
   -4.2585   -2.8099    0.7657 O   0  0  0  0  0  0  0  0  0  0  0  0
  1  2  1  0
  2  3  1  0
  3  4  1  0
  4  5  1  0
  5  6  2  0
  5  7  1  0
  7  8  1  0
  8  9  1  0
  9 10  2  0
 11  9  1  1
 11 12  1  0
 11 13  1  0
 13 14  1  0
 14 15  2  0
 15 16  1  0
 15 17  1  0
 17 18  2  0
 18 19  1  0
 19 20  1  0
 19 21  2  0
 21 22  1  0
 22 23  1  6
 24 23  1  1
 24 25  1  0
 25 26  1  0
 26 27  1  1
 27 28  1  0
 28 29  2  0
 28 30  1  0
 30 31  1  0
 30 32  1  0
 30 33  1  0
 26 34  1  0
 34 35  1  6
 34 36  1  0
 36 37  1  6
 36 38  1  0
 22 39  1  0
 18 40  1  0
 40 41  2  0
 40 42  1  0
 42 43  2  0
 43 44  1  0
 44 45  1  0
 43 46  1  0
 46 47  2  0
 47 48  1  0
 48 49  2  0
 49 50  1  0
 50 51  2  0
 39 11  1  0
 49 42  1  0
 21 14  1  0
 38 24  1  0
 50 17  1  0
M  END
>  <zinc_id>  (134) 
ZINC000028232750

>  <smiles>  (134) 
CCCCC(=O)OCC(=O)[C@]1(O)Cc2c(O)c3c(c(O)c2[C@@H](O[C@@H]2C[C@H](NC(=O)C(F)(F)F)[C@@H](O)[C@@H](C)O2)C1)C(=O)c1c(OC)cccc1C3=O

$$$$

     RDKit          3D

 51 57  0  0  0  0  0  0  0  0999 V2000
    7.9741    2.3393   -1.0590 C   0  0  0  0  0  0  0  0  0  0  0  0
    8.3869    2.3573   -1.1578 C   0  0  0  0  0  0  0  0  0  0  0  0
    9.6565    1.3834   -0.7556 C   0  0  1  0  0  0  0  0  0  0  0  0
   10.1370    2.4592    0.5327 C   0  0  2  0  0  0  0  0  0  0  0  0
   10.4214    3.6826   -0.5562 C   0  0  0  0  0  0  0  0  0  0  0  0
   11.5891    1.9834    0.4510 O   0  0  0  0  0  0  0  0  0  0  0  0
    8.8005    0.4914    0.2123 N   0  0  0  0  0  0  0  0  0  0  0  0
    7.9256    0.9023    1.0519 N   0  0  0  0  0  0  0  0  0  0  0  0
    7.3784   -0.2196    1.5879 C   0  0  0  0  0  0  0  0  0  0  0  0
    7.6027   -1.2402    0.7208 N   0  0  0  0  0  0  0  0  0  0  0  0
    6.6751   -2.2442    0.2843 C   0  0  0  0  0  0  0  0  0  0  0  0
    5.6488   -2.6762    1.1184 C   0  0  0  0  0  0  0  0  0  0  0  0
    4.3959   -2.9353    0.5636 C   0  0  0  0  0  0  0  0  0  0  0  0
    4.1008   -2.5169   -0.7325 C   0  0  0  0  0  0  0  0  0  0  0  0
    2.8797   -1.8116   -1.0044 N   0  0  0  0  0  0  0  0  0  0  0  0
    2.9418   -0.3644   -0.7961 C   0  0  0  0  0  0  0  0  0  0  0  0
    2.7262   -0.1266    0.6977 C   0  0  0  0  0  0  0  0  0  0  0  0
    1.4691   -0.8388    0.9508 N   0  0  0  0  0  0  0  0  0  0  0  0
    0.3886   -0.3884    0.1193 C   0  0  0  0  0  0  0  0  0  0  0  0
   -0.6677   -1.2159   -0.2507 C   0  0  0  0  0  0  0  0  0  0  0  0
   -1.9768   -0.7714   -0.0602 C   0  0  0  0  0  0  0  0  0  0  0  0
   -2.2370    0.5116    0.4191 C   0  0  0  0  0  0  0  0  0  0  0  0
   -3.0264    0.7193    1.5598 O   0  0  0  0  0  0  0  0  0  0  0  0
   -3.7853   -0.3523    2.1149 C   0  0  0  0  0  0  0  0  0  0  0  0
   -4.6977   -0.7609    0.7980 C   0  0  1  0  0  0  0  0  0  0  0  0
   -5.9764   -1.1954    1.7413 C   0  0  0  0  0  0  0  0  0  0  0  0
   -7.0214   -0.5817    1.1307 O   0  0  0  0  0  0  0  0  0  0  0  0
   -6.6194    0.2671    0.1546 C   0  0  1  0  0  0  0  0  0  0  0  0
   -6.3664   -0.5590   -1.0996 C   0  0  0  0  0  0  0  0  0  0  0  0
   -7.5209   -1.3895   -1.3790 N   0  0  0  0  0  0  0  0  0  0  0  0
   -8.7818   -1.0238   -1.6310 C   0  0  0  0  0  0  0  0  0  0  0  0
   -9.5745   -2.0960   -1.4391 N   0  0  0  0  0  0  0  0  0  0  0  0
   -8.7313   -3.1377   -1.2567 C   0  0  0  0  0  0  0  0  0  0  0  0
   -7.4696   -2.6994   -1.4504 N   0  0  0  0  0  0  0  0  0  0  0  0
   -7.5016    1.4127   -0.1197 C   0  0  0  0  0  0  0  0  0  0  0  0
   -7.0403    2.2854   -1.1002 C   0  0  0  0  0  0  0  0  0  0  0  0
   -7.4540    3.6092   -1.1627 C   0  0  0  0  0  0  0  0  0  0  0  0
   -7.8835    4.1698    0.0349 C   0  0  0  0  0  0  0  0  0  0  0  0
   -7.5736    5.4285    0.4150 F   0  0  0  0  0  0  0  0  0  0  0  0
   -8.6514    3.3128    0.8161 C   0  0  0  0  0  0  0  0  0  0  0  0
   -8.3619    1.9549    0.7935 C   0  0  0  0  0  0  0  0  0  0  0  0
   -8.8782    1.1107    1.7099 F   0  0  0  0  0  0  0  0  0  0  0  0
   -5.2954    0.7743    0.6565 C   0  0  0  0  0  0  0  0  0  0  0  0
   -1.2110    1.4031    0.1113 C   0  0  0  0  0  0  0  0  0  0  0  0
    0.1006    0.9615   -0.0618 C   0  0  0  0  0  0  0  0  0  0  0  0
    1.6497   -2.2950    0.9327 C   0  0  0  0  0  0  0  0  0  0  0  0
    1.7215   -2.5933   -0.5651 C   0  0  0  0  0  0  0  0  0  0  0  0
    5.1636   -2.5426   -1.6000 C   0  0  0  0  0  0  0  0  0  0  0  0
    6.4448   -2.5146   -1.0606 C   0  0  0  0  0  0  0  0  0  0  0  0
    8.6685   -0.8301    0.0042 C   0  0  0  0  0  0  0  0  0  0  0  0
    9.4566   -1.5992   -0.5792 O   0  0  0  0  0  0  0  0  0  0  0  0
  1  2  1  0
  3  2  1  6
  3  4  1  0
  4  5  1  6
  4  6  1  0
  3  7  1  0
  7  8  1  0
  8  9  2  0
  9 10  1  0
 10 11  1  0
 11 12  2  0
 12 13  1  0
 13 14  2  0
 14 15  1  0
 15 16  1  0
 16 17  1  0
 17 18  1  0
 18 19  1  0
 19 20  2  0
 20 21  1  0
 21 22  2  0
 22 23  1  0
 23 24  1  0
 25 24  1  1
 25 26  1  0
 26 27  1  0
 27 28  1  0
 28 29  1  6
 29 30  1  0
 30 31  1  0
 31 32  2  0
 32 33  1  0
 33 34  2  0
 28 35  1  0
 35 36  2  0
 36 37  1  0
 37 38  2  0
 38 39  1  0
 38 40  1  0
 40 41  2  0
 41 42  1  0
 28 43  1  0
 22 44  1  0
 44 45  2  0
 18 46  1  0
 46 47  1  0
 14 48  1  0
 48 49  2  0
 10 50  1  0
 50 51  2  0
 50  7  1  0
 49 11  1  0
 47 15  1  0
 45 19  1  0
 43 25  1  0
 34 30  1  0
 41 35  1  0
M  END
>  <zinc_id>  (135) 
ZINC000028639340

>  <smiles>  (135) 
CC[C@@H]([C@H](C)O)n1ncn(-c2ccc(N3CCN(c4ccc(OC[C@H]5CO[C@@](Cn6cncn6)(c6ccc(F)cc6F)C5)cc4)CC3)cc2)c1=O

$$$$

     RDKit          3D

 24 26  0  0  0  0  0  0  0  0999 V2000
   -4.0569   -3.8866   -0.5369 C   0  0  0  0  0  0  0  0  0  0  0  0
   -3.8856   -2.8178    0.1266 N   0  0  0  0  0  0  0  0  0  0  0  0
   -5.1486   -2.2398    0.5790 C   0  0  0  0  0  0  0  0  0  0  0  0
   -3.1311   -1.8296   -0.6279 C   0  0  0  0  0  0  0  0  0  0  0  0
   -1.6415   -2.0254   -0.4084 C   0  0  0  0  0  0  0  0  0  0  0  0
   -1.1547   -0.8437    0.3938 C   0  0  0  0  0  0  0  0  0  0  0  0
   -0.2949    0.0147   -0.5262 C   0  0  2  0  0  0  0  0  0  0  0  0
   -0.7475    1.4114   -0.3557 C   0  0  0  0  0  0  0  0  0  0  0  0
   -1.0412    2.2135   -1.4285 C   0  0  0  0  0  0  0  0  0  0  0  0
   -1.0364    3.5861   -1.2718 C   0  0  0  0  0  0  0  0  0  0  0  0
   -1.1614    4.1063    0.0047 C   0  0  0  0  0  0  0  0  0  0  0  0
   -1.0190    5.4523    0.1606 F   0  0  0  0  0  0  0  0  0  0  0  0
   -0.8367    3.3092    1.0853 C   0  0  0  0  0  0  0  0  0  0  0  0
   -0.8419    1.9385    0.9159 C   0  0  0  0  0  0  0  0  0  0  0  0
   -0.4312   -0.3906   -1.8399 O   0  0  0  0  0  0  0  0  0  0  0  0
    0.8297   -0.5163   -2.3877 C   0  0  0  0  0  0  0  0  0  0  0  0
    1.7825   -0.6654   -1.2572 C   0  0  0  0  0  0  0  0  0  0  0  0
    3.0641   -1.1391   -1.1776 C   0  0  0  0  0  0  0  0  0  0  0  0
    3.6138   -1.2823    0.0902 C   0  0  0  0  0  0  0  0  0  0  0  0
    5.0303   -1.5649    0.1359 C   0  0  0  0  0  0  0  0  0  0  0  0
    6.0787   -2.0493    0.3026 N   0  0  0  0  0  0  0  0  0  0  0  0
    3.1390   -0.4162    1.0667 C   0  0  0  0  0  0  0  0  0  0  0  0
    1.7724   -0.1755    1.0444 C   0  0  0  0  0  0  0  0  0  0  0  0
    1.1182   -0.1895   -0.1562 C   0  0  0  0  0  0  0  0  0  0  0  0
  1  2  1  0
  2  3  1  0
  2  4  1  0
  4  5  1  0
  5  6  1  0
  7  6  1  1
  7  8  1  0
  8  9  2  0
  9 10  1  0
 10 11  2  0
 11 12  1  0
 11 13  1  0
 13 14  2  0
  7 15  1  0
 15 16  1  0
 16 17  1  0
 17 18  2  0
 18 19  1  0
 19 20  1  0
 20 21  3  0
 19 22  2  0
 22 23  1  0
 23 24  2  0
 24  7  1  0
 14  8  1  0
 24 17  1  0
M  END
>  <zinc_id>  (136) 
ZINC000003794601

>  <smiles>  (136) 
CN(C)CCC[C@]1(c2ccc(F)cc2)OCc2cc(C#N)ccc21

$$$$

     RDKit          3D

 22 24  0  0  0  0  0  0  0  0999 V2000
   -0.3765    4.4500    0.9231 O   0  0  0  0  0  0  0  0  0  0  0  0
   -0.3613    3.4285    0.1841 C   0  0  0  0  0  0  0  0  0  0  0  0
    0.8176    3.2294   -0.7167 C   0  0  0  0  0  0  0  0  0  0  0  0
    1.3263    1.8860   -0.6583 N   0  0  0  0  0  0  0  0  0  0  0  0
    0.7784    0.7246   -0.6904 C   0  0  0  0  0  0  0  0  0  0  0  0
    1.7227   -0.3571   -0.4228 C   0  0  0  0  0  0  0  0  0  0  0  0
    2.0269   -1.3447   -1.3189 C   0  0  0  0  0  0  0  0  0  0  0  0
    2.9557   -2.3156   -0.9751 C   0  0  0  0  0  0  0  0  0  0  0  0
    3.8388   -1.9941    0.0402 C   0  0  0  0  0  0  0  0  0  0  0  0
    3.5398   -1.0139    0.9683 C   0  0  0  0  0  0  0  0  0  0  0  0
    2.2993   -0.4079    0.8258 C   0  0  0  0  0  0  0  0  0  0  0  0
    1.7215    0.6312    2.1154 Cl  0  0  0  0  0  0  0  0  0  0  0  0
   -0.6345    0.4163   -0.5769 C   0  0  0  0  0  0  0  0  0  0  0  0
   -0.8149   -0.9454   -0.3612 C   0  0  0  0  0  0  0  0  0  0  0  0
   -2.0566   -1.3522    0.1099 C   0  0  0  0  0  0  0  0  0  0  0  0
   -2.2918   -2.7214    0.3873 N   0  0  0  0  0  0  0  0  0  0  0  0
   -2.0552   -3.2088    1.5131 O   0  0  0  0  0  0  0  0  0  0  0  0
   -3.1055   -3.4176   -0.4556 O   0  0  0  0  0  0  0  0  0  0  0  0
   -3.1280   -0.5338   -0.2086 C   0  0  0  0  0  0  0  0  0  0  0  0
   -2.9527    0.8274   -0.3895 C   0  0  0  0  0  0  0  0  0  0  0  0
   -1.6627    1.3153   -0.3191 C   0  0  0  0  0  0  0  0  0  0  0  0
   -1.5873    2.7038    0.0259 N   0  0  0  0  0  0  0  0  0  0  0  0
  1  2  2  0
  2  3  1  0
  3  4  1  0
  4  5  2  0
  5  6  1  0
  6  7  2  0
  7  8  1  0
  8  9  2  0
  9 10  1  0
 10 11  2  0
 11 12  1  0
  5 13  1  0
 13 14  2  0
 14 15  1  0
 15 16  1  0
 16 17  2  0
 16 18  1  0
 15 19  2  0
 19 20  1  0
 20 21  2  0
 21 22  1  0
 22  2  1  0
 11  6  1  0
 21 13  1  0
M  CHG  2  16   1  18  -1
M  END
>  <zinc_id>  (137) 
ZINC000003813003

>  <smiles>  (137) 
O=C1CN=C(c2ccccc2Cl)c2cc([N+](=O)[O-])ccc2N1

$$$$

     RDKit          3D

 19 21  0  0  0  0  0  0  0  0999 V2000
   -2.3874   -3.2263    1.0015 C   0  0  0  0  0  0  0  0  0  0  0  0
   -2.6775   -1.8004    0.9488 N   0  0  0  0  0  0  0  0  0  0  0  0
   -3.8675   -1.2247    1.1782 C   0  0  0  0  0  0  0  0  0  0  0  0
   -3.8535    0.0240    0.6994 N   0  0  0  0  0  0  0  0  0  0  0  0
   -2.5493    0.3381    0.5421 C   0  0  0  0  0  0  0  0  0  0  0  0
   -2.1140    1.4537   -0.2355 N   0  0  0  0  0  0  0  0  0  0  0  0
   -2.5596    1.6009   -1.4019 O   0  0  0  0  0  0  0  0  0  0  0  0
   -1.7541    2.5770    0.4663 O   0  0  0  0  0  0  0  0  0  0  0  0
   -1.7929   -0.8232    0.6295 C   0  0  0  0  0  0  0  0  0  0  0  0
   -0.0986   -0.8247    1.1572 S   0  0  0  0  0  0  0  0  0  0  0  0
    1.0211   -0.2342   -0.0715 C   0  0  0  0  0  0  0  0  0  0  0  0
    0.6901    0.2398   -1.2689 N   0  0  0  0  0  0  0  0  0  0  0  0
    1.5923    0.9652   -1.9725 C   0  0  0  0  0  0  0  0  0  0  0  0
    2.8484    1.1703   -1.5305 N   0  0  0  0  0  0  0  0  0  0  0  0
    3.3109    0.4421   -0.4949 C   0  0  0  0  0  0  0  0  0  0  0  0
    4.5087    0.2783    0.1138 N   0  0  0  0  0  0  0  0  0  0  0  0
    4.2770   -0.0918    1.3775 C   0  0  0  0  0  0  0  0  0  0  0  0
    3.0360   -0.6223    1.3686 N   0  0  0  0  0  0  0  0  0  0  0  0
    2.3699   -0.2418    0.2552 C   0  0  0  0  0  0  0  0  0  0  0  0
  1  2  1  0
  2  3  1  0
  3  4  2  0
  4  5  1  0
  5  6  1  0
  6  7  2  0
  6  8  1  0
  5  9  2  0
  9 10  1  0
 10 11  1  0
 11 12  2  0
 12 13  1  0
 13 14  2  0
 14 15  1  0
 15 16  1  0
 16 17  2  0
 17 18  1  0
 18 19  1  0
  9  2  1  0
 19 11  1  0
 19 15  2  0
M  CHG  2   6   1   8  -1
M  END
>  <zinc_id>  (138) 
ZINC000004258316

>  <smiles>  (138) 
Cn1cnc([N+](=O)[O-])c1Sc1ncnc2nc[nH]c12

$$$$

     RDKit          3D

 26 27  0  0  0  0  0  0  0  0999 V2000
    7.5512   -0.0981    1.5660 C   0  0  0  0  0  0  0  0  0  0  0  0
    7.1003    0.6225    0.4062 N   0  0  0  0  0  0  0  0  0  0  0  0
    5.8995    0.3594   -0.2940 C   0  0  0  0  0  0  0  0  0  0  0  0
    5.1480   -0.7900   -0.0849 C   0  0  0  0  0  0  0  0  0  0  0  0
    4.0696   -1.0451   -0.8962 C   0  0  0  0  0  0  0  0  0  0  0  0
    3.7470   -0.1432   -1.8994 C   0  0  0  0  0  0  0  0  0  0  0  0
    2.4748   -0.2150   -2.6219 C   0  0  0  0  0  0  0  0  0  0  0  0
    1.4712   -0.7917   -1.9623 C   0  0  0  0  0  0  0  0  0  0  0  0
    1.2712   -0.4574   -0.5459 C   0  0  0  0  0  0  0  0  0  0  0  0
    0.6607   -1.3699    0.3077 C   0  0  0  0  0  0  0  0  0  0  0  0
   -0.2791   -0.9425    1.2386 C   0  0  0  0  0  0  0  0  0  0  0  0
   -0.6469    0.3960    1.3021 C   0  0  0  0  0  0  0  0  0  0  0  0
   -1.9841    0.7848    1.4287 O   0  0  0  0  0  0  0  0  0  0  0  0
   -2.9552   -0.0943    1.9322 C   0  0  0  0  0  0  0  0  0  0  0  0
   -3.1934   -1.2980    1.0696 C   0  0  0  0  0  0  0  0  0  0  0  0
   -3.1902   -1.0348   -0.2842 O   0  0  0  0  0  0  0  0  0  0  0  0
   -4.3357   -0.4242   -0.7491 C   0  0  0  0  0  0  0  0  0  0  0  0
   -5.5783   -1.2497   -0.6069 C   0  0  0  0  0  0  0  0  0  0  0  0
   -6.6841   -0.3894   -0.6875 O   0  0  0  0  0  0  0  0  0  0  0  0
   -6.6961    0.3652    0.4923 C   0  0  0  0  0  0  0  0  0  0  0  0
   -7.9197    0.0817    1.3205 C   0  0  0  0  0  0  0  0  0  0  0  0
   -7.6616    0.0827    2.6662 F   0  0  0  0  0  0  0  0  0  0  0  0
    0.2310    1.2645    0.7475 N   0  0  0  0  0  0  0  0  0  0  0  0
    1.1780    0.8684   -0.1369 C   0  0  0  0  0  0  0  0  0  0  0  0
    4.6782    0.7955   -2.3050 C   0  0  0  0  0  0  0  0  0  0  0  0
    5.6436    1.1566   -1.4035 C   0  0  0  0  0  0  0  0  0  0  0  0
  1  2  1  0
  2  3  1  0
  3  4  2  0
  4  5  1  0
  5  6  2  0
  6  7  1  0
  7  8  2  0
  8  9  1  0
  9 10  2  0
 10 11  1  0
 11 12  2  0
 12 13  1  0
 13 14  1  0
 14 15  1  0
 15 16  1  0
 16 17  1  0
 17 18  1  0
 18 19  1  0
 19 20  1  0
 20 21  1  0
 21 22  1  0
 12 23  1  0
 23 24  2  0
  6 25  1  0
 25 26  2  0
 26  3  1  0
 24  9  1  0
M  END
>  <zinc_id>  (139) 
ZINC000145808877

>  <smiles>  (139) 
CNc1ccc(/C=C\c2ccc(OCCOCCOCCF)nc2)cc1

$$$$

     RDKit          3D

 19 19  0  0  0  0  0  0  0  0999 V2000
    5.5485    0.2697   -1.5643 O   0  0  0  0  0  0  0  0  0  0  0  0
    4.5937   -0.2970   -0.9517 C   0  0  0  0  0  0  0  0  0  0  0  0
    3.8444   -1.3424   -1.7096 C   0  0  0  0  0  0  0  0  0  0  0  0
    2.3718   -1.0353   -1.8012 C   0  0  0  0  0  0  0  0  0  0  0  0
    2.0940    0.4253   -2.0535 C   0  0  0  0  0  0  0  0  0  0  0  0
    0.8857    0.8157   -1.2115 C   0  0  0  0  0  0  0  0  0  0  0  0
    0.9543   -0.0332    0.0472 C   0  0  0  0  0  0  0  0  0  0  0  0
    0.3509    0.6773    1.2270 C   0  0  0  0  0  0  0  0  0  0  0  0
   -1.0192    0.1088    1.4226 C   0  0  0  0  0  0  0  0  0  0  0  0
   -1.2318   -0.6431    2.4209 O   0  0  0  0  0  0  0  0  0  0  0  0
   -1.7983   -0.1646    0.2548 N   0  0  0  0  0  0  0  0  0  0  0  0
   -3.2131   -0.2740    0.4473 C   0  0  0  0  0  0  0  0  0  0  0  0
   -3.8360    0.3118    1.5422 C   0  0  0  0  0  0  0  0  0  0  0  0
   -5.1181    0.8000    1.5012 C   0  0  0  0  0  0  0  0  0  0  0  0
   -5.7756    0.8335    0.3032 C   0  0  0  0  0  0  0  0  0  0  0  0
   -5.2693    0.1285   -0.7772 C   0  0  0  0  0  0  0  0  0  0  0  0
   -4.0141   -0.4556   -0.6685 C   0  0  0  0  0  0  0  0  0  0  0  0
    4.7213   -0.3328    0.4713 N   0  0  0  0  0  0  0  0  0  0  0  0
    5.9108   -0.1194    1.0999 O   0  0  0  0  0  0  0  0  0  0  0  0
  1  2  2  0
  2  3  1  0
  3  4  1  0
  4  5  1  0
  5  6  1  0
  6  7  1  0
  7  8  1  0
  8  9  1  0
  9 10  2  0
  9 11  1  0
 11 12  1  0
 12 13  2  0
 13 14  1  0
 14 15  2  0
 15 16  1  0
 16 17  2  0
  2 18  1  0
 18 19  1  0
 17 12  1  0
M  END
>  <zinc_id>  (140) 
ZINC000001543873

>  <smiles>  (140) 
O=C(CCCCCCC(=O)Nc1ccccc1)NO

$$$$

     RDKit          3D

 12 11  0  0  0  0  0  0  0  0999 V2000
    3.6853    0.1290   -0.5533 O   0  0  0  0  0  0  0  0  0  0  0  0
    2.9248   -0.4133   -0.2554 C   0  0  0  0  0  0  0  0  0  0  0  0
    1.6046    0.1188   -1.0422 C   0  0  2  0  0  0  0  0  0  0  0  0
    1.5218    1.3643   -0.1921 F   0  0  0  0  0  0  0  0  0  0  0  0
    0.5397   -0.8247   -0.0483 C   0  0  1  0  0  0  0  0  0  0  0  0
    0.9855   -0.2398    1.2605 O   0  0  0  0  0  0  0  0  0  0  0  0
   -0.7189    0.2768   -0.4174 C   0  0  2  0  0  0  0  0  0  0  0  0
   -0.8806    0.8732    0.9487 O   0  0  0  0  0  0  0  0  0  0  0  0
   -1.8920   -0.9357   -0.0566 C   0  0  2  0  0  0  0  0  0  0  0  0
   -1.7301   -1.5586   -1.4309 O   0  0  0  0  0  0  0  0  0  0  0  0
   -3.1771   -0.0439   -0.5573 C   0  0  0  0  0  0  0  0  0  0  0  0
   -2.8631    1.2538   -0.5804 O   0  0  0  0  0  0  0  0  0  0  0  0
  1  2  2  0
  3  2  1  1
  3  4  1  0
  3  5  1  0
  5  6  1  1
  5  7  1  0
  7  8  1  1
  7  9  1  0
  9 10  1  6
  9 11  1  0
 11 12  1  0
M  END
>  <zinc_id>  (141) 
ZINC000001846431

>  <smiles>  (141) 
O=C[C@H](F)[C@@H](O)[C@H](O)[C@H](O)CO

$$$$

     RDKit          3D

 22 23  0  0  0  0  0  0  0  0999 V2000
    5.2366    0.9571    2.0651 O   0  0  0  0  0  0  0  0  0  0  0  0
    5.0981    0.5135    0.8912 C   0  0  0  0  0  0  0  0  0  0  0  0
    3.9128   -0.2883    0.5585 C   0  0  0  0  0  0  0  0  0  0  0  0
    2.7102   -0.0133    1.0438 C   0  0  0  0  0  0  0  0  0  0  0  0
    1.5034   -0.0061    0.2110 C   0  0  0  0  0  0  0  0  0  0  0  0
    1.3191    0.9162   -0.8117 C   0  0  0  0  0  0  0  0  0  0  0  0
    0.6071    0.4604   -1.9090 C   0  0  0  0  0  0  0  0  0  0  0  0
   -0.2458   -0.6110   -1.7751 C   0  0  0  0  0  0  0  0  0  0  0  0
   -0.5879   -0.9807   -0.4802 C   0  0  0  0  0  0  0  0  0  0  0  0
   -1.8046   -2.2389   -0.3318 S   0  0  0  0  0  0  0  0  0  0  0  0
   -2.0330   -2.9569   -1.6187 O   0  0  0  0  0  0  0  0  0  0  0  0
   -1.2929   -3.2247    0.6890 O   0  0  0  0  0  0  0  0  0  0  0  0
   -3.3055   -1.6238    0.2134 N   0  0  0  0  0  0  0  0  0  0  0  0
   -3.7671   -0.3093    0.0148 C   0  0  0  0  0  0  0  0  0  0  0  0
   -3.1926    0.5983   -0.8615 C   0  0  0  0  0  0  0  0  0  0  0  0
   -3.0749    1.9232   -0.4573 C   0  0  0  0  0  0  0  0  0  0  0  0
   -3.9696    2.4222    0.4761 C   0  0  0  0  0  0  0  0  0  0  0  0
   -4.9714    1.5710    0.9221 C   0  0  0  0  0  0  0  0  0  0  0  0
   -4.7628    0.2017    0.8356 C   0  0  0  0  0  0  0  0  0  0  0  0
    0.4241   -0.8416    0.4621 C   0  0  0  0  0  0  0  0  0  0  0  0
    5.8654    1.1295   -0.1495 N   0  0  0  0  0  0  0  0  0  0  0  0
    6.3314    2.4015   -0.0452 O   0  0  0  0  0  0  0  0  0  0  0  0
  1  2  2  0
  2  3  1  0
  3  4  2  0
  4  5  1  0
  5  6  2  0
  6  7  1  0
  7  8  2  0
  8  9  1  0
  9 10  1  0
 10 11  2  0
 10 12  2  0
 10 13  1  0
 13 14  1  0
 14 15  2  0
 15 16  1  0
 16 17  2  0
 17 18  1  0
 18 19  2  0
  9 20  2  0
  2 21  1  0
 21 22  1  0
 20  5  1  0
 19 14  1  0
M  END
>  <zinc_id>  (142) 
ZINC000003818726

>  <smiles>  (142) 
O=C(/C=C/c1cccc(S(=O)(=O)Nc2ccccc2)c1)NO

$$$$

     RDKit          3D

 10  9  0  0  0  0  0  0  0  0999 V2000
    3.9784   -0.3529   -0.0813 C   0  0  0  0  0  0  0  0  0  0  0  0
    2.9410    0.5822    0.2049 O   0  0  0  0  0  0  0  0  0  0  0  0
    1.6820    0.0635    0.4806 C   0  0  0  0  0  0  0  0  0  0  0  0
    1.6124   -0.9926    1.1751 O   0  0  0  0  0  0  0  0  0  0  0  0
    0.4441    0.7750    0.1679 C   0  0  0  0  0  0  0  0  0  0  0  0
   -0.3404    0.4520   -0.8549 C   0  0  0  0  0  0  0  0  0  0  0  0
   -1.7912    0.3611   -0.7494 C   0  0  0  0  0  0  0  0  0  0  0  0
   -2.5770    1.1551   -1.3495 O   0  0  0  0  0  0  0  0  0  0  0  0
   -2.4282   -0.5586    0.0904 O   0  0  0  0  0  0  0  0  0  0  0  0
   -3.5211   -0.1651    0.9162 C   0  0  0  0  0  0  0  0  0  0  0  0
  1  2  1  0
  2  3  1  0
  3  4  2  0
  3  5  1  0
  5  6  2  0
  6  7  1  0
  7  8  2  0
  7  9  1  0
  9 10  1  0
M  END
>  <zinc_id>  (143) 
ZINC000003843378

>  <smiles>  (143) 
COC(=O)/C=C/C(=O)OC

$$$$

     RDKit          3D

 29 32  0  0  0  0  0  0  0  0999 V2000
    3.2722   -2.3111   -0.6694 C   0  0  0  0  0  0  0  0  0  0  0  0
    3.1698   -0.8382   -1.4025 C   0  0  1  0  0  0  0  0  0  0  0  0
    1.5639   -0.9863   -1.6762 C   0  0  0  0  0  0  0  0  0  0  0  0
    1.0718    0.3650   -0.9541 C   0  0  1  0  0  0  0  0  0  0  0  0
   -0.3588   -0.3897   -0.4618 C   0  0  2  0  0  0  0  0  0  0  0  0
   -0.9990   -0.1649   -1.9387 C   0  0  0  0  0  0  0  0  0  0  0  0
   -2.1381   -1.2994   -1.5468 C   0  0  2  0  0  0  0  0  0  0  0  0
   -2.8764   -1.0621   -2.8417 F   0  0  0  0  0  0  0  0  0  0  0  0
   -2.9793   -0.1630   -0.7630 C   0  0  0  0  0  0  0  0  0  0  0  0
   -4.2390   -0.5465   -0.5889 C   0  0  0  0  0  0  0  0  0  0  0  0
   -5.0906    0.4455    0.0881 C   0  0  0  0  0  0  0  0  0  0  0  0
   -6.3091    0.2157    0.3004 O   0  0  0  0  0  0  0  0  0  0  0  0
   -4.4596    1.7122    0.3959 C   0  0  0  0  0  0  0  0  0  0  0  0
   -3.1355    1.9000    0.2860 C   0  0  0  0  0  0  0  0  0  0  0  0
   -2.3571    0.6087    0.2970 C   0  0  1  0  0  0  0  0  0  0  0  0
   -2.7343   -0.0091    1.6053 C   0  0  0  0  0  0  0  0  0  0  0  0
   -0.9435    0.9739    0.1108 C   0  0  2  0  0  0  0  0  0  0  0  0
   -0.7227    2.0167   -0.6824 F   0  0  0  0  0  0  0  0  0  0  0  0
   -0.2649    1.2046    1.5779 C   0  0  1  0  0  0  0  0  0  0  0  0
   -0.4085   -0.2484    2.0091 O   0  0  0  0  0  0  0  0  0  0  0  0
    1.3276    1.0705    1.2088 C   0  0  0  0  0  0  0  0  0  0  0  0
    1.7074   -0.0764    0.4584 C   0  0  1  0  0  0  0  0  0  0  0  0
    1.3603   -1.4336    0.8628 C   0  0  0  0  0  0  0  0  0  0  0  0
    3.0764    0.0055   -0.0150 C   0  0  2  0  0  0  0  0  0  0  0  0
    3.4520    1.2582   -0.5336 O   0  0  0  0  0  0  0  0  0  0  0  0
    4.1179   -0.5475    0.8348 C   0  0  0  0  0  0  0  0  0  0  0  0
    3.7689   -0.8803    1.9644 O   0  0  0  0  0  0  0  0  0  0  0  0
    5.4746    0.0282    0.7401 C   0  0  0  0  0  0  0  0  0  0  0  0
    6.6535   -0.8479   -0.1793 Cl  0  0  0  0  0  0  0  0  0  0  0  0
  2  1  1  1
  2  3  1  0
  4  3  1  6
  4  5  1  0
  5  6  1  6
  6  7  1  0
  7  8  1  6
  7  9  1  0
  9 10  2  0
 10 11  1  0
 11 12  2  0
 11 13  1  0
 13 14  2  0
 14 15  1  0
 15 16  1  1
 15 17  1  0
 17 18  1  6
 17 19  1  0
 19 20  1  1
 19 21  1  0
 21 22  1  0
 22 23  1  1
 22 24  1  0
 24 25  1  6
 24 26  1  0
 26 27  2  0
 26 28  1  0
 28 29  1  0
 24  2  1  0
 22  4  1  0
 17  5  1  0
 15  9  1  0
M  END
>  <zinc_id>  (144) 
ZINC000004214603

>  <smiles>  (144) 
C[C@H]1C[C@H]2[C@@H]3C[C@H](F)C4=CC(=O)C=C[C@]4(C)[C@@]3(F)[C@@H](O)C[C@]2(C)[C@@]1(O)C(=O)CCl

$$$$

     RDKit          3D

 29 32  0  0  0  0  0  0  0  0999 V2000
    0.6793   -0.0496   -1.9568 O   0  0  0  0  0  0  0  0  0  0  0  0
    1.6062   -1.2180   -1.6034 C   0  0  2  0  0  0  0  0  0  0  0  0
    1.1723   -1.1788    0.0036 C   0  0  0  0  0  0  0  0  0  0  0  0
   -0.0039   -1.9732   -0.0089 N   0  0  0  0  0  0  0  0  0  0  0  0
   -0.8892   -1.8236   -1.0750 C   0  0  0  0  0  0  0  0  0  0  0  0
   -2.1523   -0.8364   -0.6440 C   0  0  2  0  0  0  0  0  0  0  0  0
   -1.4677   -0.2855    0.6133 O   0  0  0  0  0  0  0  0  0  0  0  0
   -2.9385   -2.1196    0.2730 C   0  0  2  0  0  0  0  0  0  0  0  0
   -4.1746   -2.1947   -0.8282 C   0  0  0  0  0  0  0  0  0  0  0  0
   -5.4086   -1.6704   -0.2808 C   0  0  0  0  0  0  0  0  0  0  0  0
   -5.1710   -0.2081   -0.0910 C   0  0  0  0  0  0  0  0  0  0  0  0
   -5.9560    0.7975   -0.5240 C   0  0  0  0  0  0  0  0  0  0  0  0
   -6.0141    1.9637    0.2315 C   0  0  0  0  0  0  0  0  0  0  0  0
   -7.1013    2.7881    0.1824 F   0  0  0  0  0  0  0  0  0  0  0  0
   -4.9981    2.1861    1.1537 C   0  0  0  0  0  0  0  0  0  0  0  0
   -4.3575    1.0708    1.6790 C   0  0  0  0  0  0  0  0  0  0  0  0
   -4.1087    0.0316    0.7805 C   0  0  0  0  0  0  0  0  0  0  0  0
   -3.6183   -1.1395    1.2635 O   0  0  0  0  0  0  0  0  0  0  0  0
    2.9782   -0.1363   -1.3912 C   0  0  1  0  0  0  0  0  0  0  0  0
    2.1892    0.8666   -0.3343 C   0  0  0  0  0  0  0  0  0  0  0  0
    3.2134    1.5291    0.4908 C   0  0  0  0  0  0  0  0  0  0  0  0
    4.5851    1.0135    0.3318 C   0  0  0  0  0  0  0  0  0  0  0  0
    5.7099    1.8289    0.2866 C   0  0  0  0  0  0  0  0  0  0  0  0
    6.9510    1.2186    0.1215 C   0  0  0  0  0  0  0  0  0  0  0  0
    7.9293    1.8911   -0.5553 F   0  0  0  0  0  0  0  0  0  0  0  0
    7.1010   -0.1001    0.5393 C   0  0  0  0  0  0  0  0  0  0  0  0
    5.9532   -0.8876    0.4402 C   0  0  0  0  0  0  0  0  0  0  0  0
    4.7070   -0.3688    0.2363 C   0  0  0  0  0  0  0  0  0  0  0  0
    3.5850   -0.9952   -0.2476 O   0  0  0  0  0  0  0  0  0  0  0  0
  2  1  1  6
  2  3  1  0
  3  4  1  0
  4  5  1  0
  6  5  1  6
  6  7  1  0
  6  8  1  0
  8  9  1  6
  9 10  1  0
 10 11  1  0
 11 12  2  0
 12 13  1  0
 13 14  1  0
 13 15  2  0
 15 16  1  0
 16 17  2  0
 17 18  1  0
  2 19  1  0
 19 20  1  1
 20 21  1  0
 21 22  1  0
 22 23  2  0
 23 24  1  0
 24 25  1  0
 24 26  2  0
 26 27  1  0
 27 28  2  0
 28 29  1  0
 18  8  1  0
 29 19  1  0
 17 11  1  0
 28 22  1  0
M  END
>  <zinc_id>  (145) 
ZINC000005844788

>  <smiles>  (145) 
O[C@@H](CNC[C@@H](O)[C@H]1CCc2cc(F)ccc2O1)[C@@H]1CCc2cc(F)ccc2O1

$$$$

     RDKit          3D

 23 26  0  0  0  0  0  0  0  0999 V2000
   -4.6519    1.8240    0.8170 C   0  0  0  0  0  0  0  0  0  0  0  0
   -4.0022    0.9853    0.8002 C   0  0  0  0  0  0  0  0  0  0  0  0
   -3.1434   -0.1926    0.7606 C   0  0  2  0  0  0  0  0  0  0  0  0
   -3.7838   -1.3538    0.4265 O   0  0  0  0  0  0  0  0  0  0  0  0
   -2.4711   -0.4331    2.1105 C   0  0  0  0  0  0  0  0  0  0  0  0
   -1.0916   -0.9491    1.8140 C   0  0  0  0  0  0  0  0  0  0  0  0
   -1.2944   -1.3928    0.2595 C   0  0  2  0  0  0  0  0  0  0  0  0
    0.3006   -1.2984   -0.2833 C   0  0  2  0  0  0  0  0  0  0  0  0
    1.0609   -1.0608    1.1253 C   0  0  0  0  0  0  0  0  0  0  0  0
    2.3703   -1.5474    0.6317 C   0  0  0  0  0  0  0  0  0  0  0  0
    2.5372   -0.9977   -0.7355 C   0  0  0  0  0  0  0  0  0  0  0  0
    3.8288   -0.8541   -1.0953 C   0  0  0  0  0  0  0  0  0  0  0  0
    4.4532    0.4852   -1.1579 C   0  0  0  0  0  0  0  0  0  0  0  0
    5.6946    0.6305   -1.3811 O   0  0  0  0  0  0  0  0  0  0  0  0
    3.9056    1.3985   -0.1002 C   0  0  0  0  0  0  0  0  0  0  0  0
    2.4736    1.1016    0.2456 C   0  0  0  0  0  0  0  0  0  0  0  0
    1.9649    0.4296   -1.1515 C   0  0  2  0  0  0  0  0  0  0  0  0
    0.3120    0.2828   -0.8293 C   0  0  2  0  0  0  0  0  0  0  0  0
    0.2280    1.0616    0.5849 C   0  0  0  0  0  0  0  0  0  0  0  0
   -1.2557    1.1335    0.6766 C   0  0  0  0  0  0  0  0  0  0  0  0
   -1.8805    0.0672   -0.0758 C   0  0  2  0  0  0  0  0  0  0  0  0
   -2.2622    0.2080   -1.4633 C   0  0  0  0  0  0  0  0  0  0  0  0
   -3.2929   -0.7388   -1.9792 C   0  0  0  0  0  0  0  0  0  0  0  0
  1  2  3  0
  3  2  1  1
  3  4  1  0
  3  5  1  0
  5  6  1  0
  7  6  1  1
  7  8  1  0
  8  9  1  1
  9 10  1  0
 10 11  1  0
 11 12  2  0
 12 13  1  0
 13 14  2  0
 13 15  1  0
 15 16  1  0
 17 16  1  1
 17 18  1  0
 18 19  1  1
 19 20  1  0
 20 21  1  0
 21 22  1  6
 22 23  1  0
 21  3  1  0
 21  7  1  0
 18  8  1  0
 17 11  1  0
M  END
>  <zinc_id>  (146) 
ZINC000253498282

>  <smiles>  (146) 
C#C[C@]1(O)CC[C@@H]2[C@@H]3CCC4=CC(=O)CC[C@@H]4[C@@H]3CC[C@@]21CC

$$$$

     RDKit          3D

 30 33  0  0  0  0  0  0  0  0999 V2000
   -3.7335    0.0605    2.4621 C   0  0  0  0  0  0  0  0  0  0  0  0
   -3.4307    0.3430    2.4939 C   0  0  0  0  0  0  0  0  0  0  0  0
   -2.5130    1.2323    1.4745 C   0  0  1  0  0  0  0  0  0  0  0  0
   -1.3209    0.0250    1.4584 C   0  0  1  0  0  0  0  0  0  0  0  0
   -2.0696   -1.1447    0.8858 O   0  0  0  0  0  0  0  0  0  0  0  0
   -0.6068    0.5872    0.0328 C   0  0  1  0  0  0  0  0  0  0  0  0
    0.3511   -0.7861    0.0158 C   0  0  2  0  0  0  0  0  0  0  0  0
    1.2344   -0.3736    1.3157 C   0  0  0  0  0  0  0  0  0  0  0  0
    2.3118   -1.3042    0.9522 C   0  0  0  0  0  0  0  0  0  0  0  0
    2.4003   -1.3119   -0.6764 C   0  0  2  0  0  0  0  0  0  0  0  0
    3.8935   -0.4857   -0.5882 C   0  0  2  0  0  0  0  0  0  0  0  0
    4.3177   -0.8546   -2.1129 C   0  0  0  0  0  0  0  0  0  0  0  0
    4.6181   -1.8162   -0.0116 C   0  0  0  0  0  0  0  0  0  0  0  0
    5.6368   -1.5358    0.9454 C   0  0  0  0  0  0  0  0  0  0  0  0
    5.8942   -0.2405    1.4900 C   0  0  0  0  0  0  0  0  0  0  0  0
    6.7742    0.4783    0.9249 O   0  0  0  0  0  0  0  0  0  0  0  0
    5.6273    0.0911    2.8221 O   0  0  0  0  0  0  0  0  0  0  0  0
    1.4495   -0.0250   -0.9229 C   0  0  2  0  0  0  0  0  0  0  0  0
    1.9269    1.1604   -0.2776 C   0  0  0  0  0  0  0  0  0  0  0  0
    0.7156   -0.0765   -2.1501 C   0  0  0  0  0  0  0  0  0  0  0  0
   -0.6801    0.3305   -2.2914 C   0  0  0  0  0  0  0  0  0  0  0  0
   -1.5983   -0.2168   -1.0527 C   0  0  2  0  0  0  0  0  0  0  0  0
   -2.6016    1.0255   -1.1121 C   0  0  1  0  0  0  0  0  0  0  0  0
   -1.9187    2.2862   -1.2683 C   0  0  0  0  0  0  0  0  0  0  0  0
   -3.6076    0.6713   -2.1360 C   0  0  0  0  0  0  0  0  0  0  0  0
   -4.6255   -0.3077   -2.0026 C   0  0  0  0  0  0  0  0  0  0  0  0
   -5.3227   -0.2741   -0.5017 C   0  0  1  0  0  0  0  0  0  0  0  0
   -5.6884   -1.7579   -0.5593 O   0  0  0  0  0  0  0  0  0  0  0  0
   -3.8575   -0.5929    0.2120 C   0  0  0  0  0  0  0  0  0  0  0  0
   -3.5764    1.0192    0.1784 C   0  0  1  0  0  0  0  0  0  0  0  0
  1  2  1  0
  3  2  1  1
  3  4  1  0
  4  5  1  6
  6  4  1  1
  6  7  1  0
  7  8  1  1
  8  9  1  0
 10  9  1  1
 10 11  1  0
 11 12  1  6
 11 13  1  0
 13 14  1  0
 14 15  1  0
 15 16  2  0
 15 17  1  0
 10 18  1  0
 18 19  1  1
 18 20  1  0
 20 21  1  0
 22 21  1  6
 22 23  1  0
 23 24  1  6
 23 25  1  0
 25 26  1  0
 26 27  1  0
 27 28  1  6
 27 29  1  0
 30 29  1  1
 30  3  1  0
 22  6  1  0
 30 23  1  0
 18  7  1  0
M  END
>  <zinc_id>  (147) 
ZINC000014164617

>  <smiles>  (147) 
CC[C@@H]1[C@@H]2C[C@H](O)CC[C@]2(C)[C@H]2CC[C@@]3(C)[C@@H](CC[C@@H]3[C@H](C)CCC(=O)O)[C@@H]2[C@@H]1O

$$$$

     RDKit          3D

 36 40  0  0  0  0  0  0  0  0999 V2000
   -8.1545   -1.0559    0.5780 C   0  0  0  0  0  0  0  0  0  0  0  0
   -8.5712   -0.7180   -0.8034 C   0  0  0  0  0  0  0  0  0  0  0  0
   -7.6539    0.1993   -1.4116 O   0  0  0  0  0  0  0  0  0  0  0  0
   -6.7987    0.8808   -0.5697 C   0  0  0  0  0  0  0  0  0  0  0  0
   -7.3555    1.5309    0.3561 O   0  0  0  0  0  0  0  0  0  0  0  0
   -5.4416    1.2503   -0.7292 N   0  0  0  0  0  0  0  0  0  0  0  0
   -4.6156    0.7232    0.5233 C   0  0  2  0  0  0  0  0  0  0  0  0
   -3.3239    1.6491    0.1254 C   0  0  0  0  0  0  0  0  0  0  0  0
   -2.4327    0.9480    1.1707 C   0  0  0  0  0  0  0  0  0  0  0  0
   -1.7785    0.1552   -0.0656 C   0  0  2  0  0  0  0  0  0  0  0  0
   -2.7856   -1.1992    0.0546 C   0  0  2  0  0  0  0  0  0  0  0  0
   -2.5016   -1.3338   -1.5320 C   0  0  0  0  0  0  0  0  0  0  0  0
   -0.9546   -1.7052   -1.7697 C   0  0  1  0  0  0  0  0  0  0  0  0
   -0.2833   -0.2581   -1.8337 C   0  0  0  0  0  0  0  0  0  0  0  0
   -0.6096    0.5263   -2.7701 O   0  0  0  0  0  0  0  0  0  0  0  0
    0.9140   -0.7852   -1.7860 O   0  0  0  0  0  0  0  0  0  0  0  0
    1.1495   -1.7919   -0.6822 C   0  0  2  0  0  0  0  0  0  0  0  0
    1.0468   -3.0234   -1.7598 C   0  0  0  0  0  0  0  0  0  0  0  0
   -0.4608   -2.0479   -0.2204 C   0  0  1  0  0  0  0  0  0  0  0  0
   -0.6086   -0.7175    0.7898 C   0  0  1  0  0  0  0  0  0  0  0  0
    0.5891    0.1943    0.3196 C   0  0  0  0  0  0  0  0  0  0  0  0
    0.4761    0.7023    1.5727 C   0  0  0  0  0  0  0  0  0  0  0  0
    1.7133    1.0909    1.8889 C   0  0  0  0  0  0  0  0  0  0  0  0
    2.5371    0.8703    3.0081 C   0  0  0  0  0  0  0  0  0  0  0  0
    3.9187    0.9009    2.7924 C   0  0  0  0  0  0  0  0  0  0  0  0
    4.4594    1.4354    1.6254 C   0  0  0  0  0  0  0  0  0  0  0  0
    5.4190    0.6430    0.8372 C   0  0  0  0  0  0  0  0  0  0  0  0
    5.4736   -0.7424    0.9931 C   0  0  0  0  0  0  0  0  0  0  0  0
    6.5141   -1.4979    0.5276 C   0  0  0  0  0  0  0  0  0  0  0  0
    7.2388   -0.9878   -0.5312 C   0  0  0  0  0  0  0  0  0  0  0  0
    7.1299    0.3709   -0.7689 C   0  0  0  0  0  0  0  0  0  0  0  0
    8.0241    0.9056   -1.6360 F   0  0  0  0  0  0  0  0  0  0  0  0
    6.1098    1.1363   -0.2275 C   0  0  0  0  0  0  0  0  0  0  0  0
    3.5731    2.3391    1.0413 C   0  0  0  0  0  0  0  0  0  0  0  0
    2.2312    2.1942    1.2464 N   0  0  0  0  0  0  0  0  0  0  0  0
   -4.1875   -0.5479   -0.3539 C   0  0  0  0  0  0  0  0  0  0  0  0
  1  2  1  0
  2  3  1  0
  3  4  1  0
  4  5  2  0
  4  6  1  0
  7  6  1  6
  7  8  1  0
  8  9  1  0
 10  9  1  1
 10 11  1  0
 11 12  1  6
 13 12  1  1
 13 14  1  0
 14 15  2  0
 14 16  1  0
 16 17  1  0
 17 18  1  6
 19 17  1  6
 19 20  1  0
 20 21  1  6
 21 22  2  0
 22 23  1  0
 23 24  2  0
 24 25  1  0
 25 26  2  0
 26 27  1  0
 27 28  2  0
 28 29  1  0
 29 30  2  0
 30 31  1  0
 31 32  1  0
 31 33  2  0
 26 34  1  0
 34 35  2  0
 11 36  1  0
 36  7  1  0
 20 10  1  0
 35 23  1  0
 19 13  1  0
 33 27  1  0
M  END
>  <zinc_id>  (148) 
ZINC000204073689

>  <smiles>  (148) 
CCOC(=O)N[C@@H]1CC[C@@H]2[C@@H](C1)C[C@H]1C(=O)O[C@H](C)[C@H]1[C@H]2/C=C\c1ccc(-c2cccc(F)c2)cn1

$$$$

     RDKit          3D

 26 30  0  0  0  0  0  0  0  0999 V2000
   -3.9075   -1.6843    1.2911 C   0  0  0  0  0  0  0  0  0  0  0  0
   -4.2988   -0.4230    0.7742 N   0  0  0  0  0  0  0  0  0  0  0  0
   -5.1246   -0.6951   -0.2880 C   0  0  0  0  0  0  0  0  0  0  0  0
   -3.3426    0.0921   -0.2571 C   0  0  2  0  0  0  0  0  0  0  0  0
   -1.9755    0.5943    0.7129 C   0  0  0  0  0  0  0  0  0  0  0  0
   -1.3806    1.1893   -0.6576 C   0  0  1  0  0  0  0  0  0  0  0  0
   -0.3606    0.0083   -0.8062 O   0  0  0  0  0  0  0  0  0  0  0  0
    0.5094    0.0784    0.2554 C   0  0  0  0  0  0  0  0  0  0  0  0
   -0.0904    0.1870    1.3774 O   0  0  0  0  0  0  0  0  0  0  0  0
    1.9227   -0.2742    0.3629 C   0  0  0  0  0  0  0  0  0  0  0  0
    2.2337   -0.4573    1.7324 O   0  0  0  0  0  0  0  0  0  0  0  0
    2.3176   -1.5400   -0.2854 C   0  0  0  0  0  0  0  0  0  0  0  0
    2.9009   -1.7774   -1.5252 C   0  0  0  0  0  0  0  0  0  0  0  0
    3.9164   -2.7302   -1.4069 C   0  0  0  0  0  0  0  0  0  0  0  0
    3.4141   -3.8837   -0.8014 C   0  0  0  0  0  0  0  0  0  0  0  0
    2.6480   -3.0417    0.4948 S   0  0  0  0  0  0  0  0  0  0  0  0
    2.8279    0.8638   -0.0078 C   0  0  0  0  0  0  0  0  0  0  0  0
    4.1258    0.8059   -0.5028 C   0  0  0  0  0  0  0  0  0  0  0  0
    4.8811    1.8497   -0.0611 C   0  0  0  0  0  0  0  0  0  0  0  0
    4.2107    3.0573   -0.1040 C   0  0  0  0  0  0  0  0  0  0  0  0
    2.5692    2.5551   -0.0339 S   0  0  0  0  0  0  0  0  0  0  0  0
   -2.6467    0.2351   -0.9541 C   0  0  0  0  0  0  0  0  0  0  0  0
   -2.9531    0.0925    0.7640 C   0  0  1  0  0  0  0  0  0  0  0  0
   -3.3698    1.7630    1.0667 C   0  0  2  0  0  0  0  0  0  0  0  0
   -4.9948    1.4796    0.9290 O   0  0  0  0  0  0  0  0  0  0  0  0
   -4.0325    1.6554   -0.4102 C   0  0  2  0  0  0  0  0  0  0  0  0
  1  2  1  0
  2  3  1  0
  2  4  1  0
  4  5  1  1
  5  6  1  0
  6  7  1  6
  7  8  1  0
  8  9  2  0
  8 10  1  0
 10 11  1  0
 10 12  1  0
 12 13  2  0
 13 14  1  0
 14 15  2  0
 15 16  1  0
 10 17  1  0
 17 18  2  0
 18 19  1  0
 19 20  2  0
 20 21  1  0
  6 22  1  0
 23 22  1  6
 23 24  1  0
 24 25  1  1
 26 25  1  1
 23  2  1  0
 26 24  1  0
 26  4  1  0
 16 12  1  0
 21 17  1  0
M  CHG  1   2   1
M  END
>  <zinc_id>  (149) 
ZINC000100008319

>  <smiles>  (149) 
C[N+]1(C)[C@H]2C[C@H](OC(=O)C(O)(c3cccs3)c3cccs3)C[C@@H]1[C@H]1O[C@@H]21

$$$$

     RDKit          3D

 10 10  0  0  0  0  0  0  0  0999 V2000
    0.9545    1.5565   -0.9254 C   0  0  0  0  0  0  0  0  0  0  0  0
   -0.1870    0.7988   -0.4659 N   0  0  0  0  0  0  0  0  0  0  0  0
   -1.3308    1.3826    0.1576 C   0  0  0  0  0  0  0  0  0  0  0  0
   -2.2246    0.5501    0.6949 C   0  0  0  0  0  0  0  0  0  0  0  0
   -2.2450   -0.8637    0.2943 C   0  0  0  0  0  0  0  0  0  0  0  0
   -1.1735   -1.4487   -0.2453 C   0  0  0  0  0  0  0  0  0  0  0  0
    0.0273   -0.6161   -0.3716 C   0  0  0  0  0  0  0  0  0  0  0  0
    1.2602   -1.1116   -0.3188 C   0  0  0  0  0  0  0  0  0  0  0  0
    2.3686   -0.2534   -0.0185 N   0  0  0  0  0  0  0  0  0  0  0  0
    2.5503    0.0055    1.1987 O   0  0  0  0  0  0  0  0  0  0  0  0
  1  2  1  0
  2  3  1  0
  3  4  2  0
  4  5  1  0
  5  6  2  0
  6  7  1  0
  7  8  2  0
  8  9  1  0
  9 10  2  0
  7  2  1  0
M  END
>  <zinc_id>  (150) 
ZINC000100061056

>  <smiles>  (150) 
CN1C=CC=C/C1=C/N=O

$$$$

     RDKit          3D

 35 37  0  0  0  0  0  0  0  0999 V2000
    8.0881   -0.5034    4.3119 C   0  0  0  0  0  0  0  0  0  0  0  0
    7.5352   -0.2586    3.1409 C   0  0  0  0  0  0  0  0  0  0  0  0
    6.9953   -0.0519    2.0725 C   0  0  0  0  0  0  0  0  0  0  0  0
    6.1095    0.2083    0.9223 C   0  0  0  0  0  0  0  0  0  0  0  0
    7.1326    1.0335   -0.0364 C   0  0  2  0  0  0  0  0  0  0  0  0
    6.0539    2.1804   -0.4442 C   0  0  0  0  0  0  0  0  0  0  0  0
    6.8281    0.1272   -1.4836 C   0  0  1  0  0  0  0  0  0  0  0  0
    7.0379   -1.2194   -0.7908 O   0  0  0  0  0  0  0  0  0  0  0  0
    5.1993    0.0672   -1.2851 C   0  0  0  0  0  0  0  0  0  0  0  0
    4.7412   -0.9629   -1.9214 C   0  0  0  0  0  0  0  0  0  0  0  0
    3.3383   -0.9383   -2.6822 C   0  0  1  0  0  0  0  0  0  0  0  0
    2.4736   -0.3837   -1.3638 C   0  0  2  0  0  0  0  0  0  0  0  0
    1.3078   -1.5175   -1.3090 C   0  0  0  0  0  0  0  0  0  0  0  0
    0.1403   -0.5880   -1.0298 C   0  0  0  0  0  0  0  0  0  0  0  0
   -0.9538   -0.8278   -1.7702 C   0  0  0  0  0  0  0  0  0  0  0  0
   -1.6651   -2.0779   -1.5959 C   0  0  0  0  0  0  0  0  0  0  0  0
   -2.8102   -1.8003   -0.6234 C   0  0  0  0  0  0  0  0  0  0  0  0
   -2.1678   -1.1980    0.6158 C   0  0  0  0  0  0  0  0  0  0  0  0
   -2.9151    0.0424    1.0055 C   0  0  0  0  0  0  0  0  0  0  0  0
   -2.6269    1.1644    0.4857 O   0  0  0  0  0  0  0  0  0  0  0  0
   -3.4294    0.1387    2.3076 O   0  0  0  0  0  0  0  0  0  0  0  0
   -4.6803    0.8245    2.3499 C   0  0  0  0  0  0  0  0  0  0  0  0
   -5.7712   -0.0722    1.9289 C   0  0  0  0  0  0  0  0  0  0  0  0
   -5.4905   -1.2924    1.7741 O   0  0  0  0  0  0  0  0  0  0  0  0
   -7.1868    0.2403    1.9905 C   0  0  0  0  0  0  0  0  0  0  0  0
   -8.0928   -0.5402    2.7024 C   0  0  0  0  0  0  0  0  0  0  0  0
   -9.4113   -0.6840    2.3161 C   0  0  0  0  0  0  0  0  0  0  0  0
   -9.7484   -0.4351    0.9913 C   0  0  0  0  0  0  0  0  0  0  0  0
   -9.0004    0.5853    0.4085 C   0  0  0  0  0  0  0  0  0  0  0  0
   -7.7283    0.8738    0.8779 C   0  0  0  0  0  0  0  0  0  0  0  0
    0.6075    0.8580   -1.1327 C   0  0  0  0  0  0  0  0  0  0  0  0
    1.4240    0.3729   -2.4736 C   0  0  1  0  0  0  0  0  0  0  0  0
    2.6037    1.4846   -2.4215 C   0  0  0  0  0  0  0  0  0  0  0  0
    3.5900    0.6017   -3.4092 C   0  0  2  0  0  0  0  0  0  0  0  0
    2.4725    0.3487   -4.4289 O   0  0  0  0  0  0  0  0  0  0  0  0
  1  2  1  0
  2  3  3  0
  3  4  1  0
  5  4  1  1
  5  6  1  0
  5  7  1  0
  7  8  1  1
  7  9  1  0
  9 10  2  0
 11 10  1  1
 11 12  1  0
 12 13  1  6
 13 14  1  0
 14 15  2  0
 15 16  1  0
 16 17  1  0
 17 18  1  0
 18 19  1  0
 19 20  2  0
 19 21  1  0
 21 22  1  0
 22 23  1  0
 23 24  2  0
 23 25  1  0
 25 26  2  0
 26 27  1  0
 27 28  2  0
 28 29  1  0
 29 30  2  0
 14 31  1  0
 32 31  1  1
 32 33  1  0
 33 34  1  0
 34 35  1  6
 34 11  1  0
 32 12  1  0
 30 25  1  0
M  END
>  <zinc_id>  (151) 
ZINC000100052685

>  <smiles>  (151) 
CC#CC[C@H](C)[C@@H](O)/C=C/[C@@H]1[C@@H](O)C[C@@H]2C/C(=C/CCCC(=O)OCC(=O)c3ccccc3)C[C@H]21

$$$$

     RDKit          3D

 35 37  0  0  0  0  0  0  0  0999 V2000
   -9.0012    3.0452    1.8347 C   0  0  0  0  0  0  0  0  0  0  0  0
   -8.4782    2.1496    1.1717 C   0  0  0  0  0  0  0  0  0  0  0  0
   -8.0582    1.5211    0.2140 C   0  0  0  0  0  0  0  0  0  0  0  0
   -7.7728    0.6773   -0.9629 C   0  0  0  0  0  0  0  0  0  0  0  0
   -6.9111    1.7082   -1.8614 C   0  0  2  0  0  0  0  0  0  0  0  0
   -6.1477    0.5393   -2.6793 C   0  0  0  0  0  0  0  0  0  0  0  0
   -5.7472    1.9387   -0.6237 C   0  0  2  0  0  0  0  0  0  0  0  0
   -4.6572    2.1803   -1.6430 O   0  0  0  0  0  0  0  0  0  0  0  0
   -5.3906    0.3761   -0.4692 C   0  0  0  0  0  0  0  0  0  0  0  0
   -4.6823   -0.0194    0.5302 C   0  0  0  0  0  0  0  0  0  0  0  0
   -3.7176   -1.2004    0.0959 C   0  0  1  0  0  0  0  0  0  0  0  0
   -2.4530   -0.5621    0.9790 C   0  0  2  0  0  0  0  0  0  0  0  0
   -1.5307   -0.0577   -0.2374 C   0  0  0  0  0  0  0  0  0  0  0  0
   -0.2451   -0.4998    0.4151 C   0  0  0  0  0  0  0  0  0  0  0  0
    0.8824    0.0491    0.0102 C   0  0  0  0  0  0  0  0  0  0  0  0
    1.2355   -0.0635   -1.4458 C   0  0  0  0  0  0  0  0  0  0  0  0
    2.4748   -0.9443   -1.5784 C   0  0  0  0  0  0  0  0  0  0  0  0
    3.1197   -0.9716   -0.2317 C   0  0  0  0  0  0  0  0  0  0  0  0
    4.3764   -1.7392   -0.1627 C   0  0  0  0  0  0  0  0  0  0  0  0
    4.9107   -2.2837   -1.1615 O   0  0  0  0  0  0  0  0  0  0  0  0
    5.2408   -1.2572    0.8271 O   0  0  0  0  0  0  0  0  0  0  0  0
    6.5710   -1.6445    0.9771 C   0  0  0  0  0  0  0  0  0  0  0  0
    7.4834   -0.9483    0.0401 C   0  0  0  0  0  0  0  0  0  0  0  0
    7.9483   -1.6125   -0.9183 O   0  0  0  0  0  0  0  0  0  0  0  0
    7.3815    0.5067   -0.0626 C   0  0  0  0  0  0  0  0  0  0  0  0
    8.5034    1.2664   -0.3569 C   0  0  0  0  0  0  0  0  0  0  0  0
    8.3838    2.6276   -0.5199 C   0  0  0  0  0  0  0  0  0  0  0  0
    7.2085    3.2658   -0.2369 C   0  0  0  0  0  0  0  0  0  0  0  0
    6.1796    2.5721    0.3370 C   0  0  0  0  0  0  0  0  0  0  0  0
    6.2945    1.2022    0.4411 C   0  0  0  0  0  0  0  0  0  0  0  0
   -0.4890   -1.5889    1.4287 C   0  0  0  0  0  0  0  0  0  0  0  0
   -1.8281   -2.1025    0.6731 C   0  0  1  0  0  0  0  0  0  0  0  0
   -2.6924   -2.5341    1.9539 C   0  0  0  0  0  0  0  0  0  0  0  0
   -4.1941   -2.1867    1.3971 C   0  0  2  0  0  0  0  0  0  0  0  0
   -4.1977   -3.4096    0.5075 O   0  0  0  0  0  0  0  0  0  0  0  0
  1  2  1  0
  2  3  3  0
  3  4  1  0
  5  4  1  1
  5  6  1  0
  5  7  1  0
  7  8  1  6
  7  9  1  0
  9 10  2  0
 11 10  1  1
 11 12  1  0
 12 13  1  6
 13 14  1  0
 14 15  2  0
 15 16  1  0
 16 17  1  0
 17 18  1  0
 18 19  1  0
 19 20  2  0
 19 21  1  0
 21 22  1  0
 22 23  1  0
 23 24  2  0
 23 25  1  0
 25 26  2  0
 26 27  1  0
 27 28  2  0
 28 29  1  0
 29 30  2  0
 14 31  1  0
 32 31  1  1
 32 33  1  0
 33 34  1  0
 34 35  1  6
 34 11  1  0
 32 12  1  0
 30 25  1  0
M  END
>  <zinc_id>  (152) 
ZINC000100052691

>  <smiles>  (152) 
CC#CC[C@H](C)[C@H](O)/C=C/[C@@H]1[C@@H](O)C[C@@H]2C/C(=C/CCCC(=O)OCC(=O)c3ccccc3)C[C@H]21

$$$$

     RDKit          3D

 33 36  0  0  0  0  0  0  0  0999 V2000
   -0.6690   -3.9901   -0.9819 C   0  0  0  0  0  0  0  0  0  0  0  0
   -0.6371   -3.5904   -0.6024 C   0  0  0  0  0  0  0  0  0  0  0  0
   -0.4121   -2.6944    0.5363 C   0  0  0  0  0  0  0  0  0  0  0  0
   -0.6176   -1.3488    0.2664 N   0  0  0  0  0  0  0  0  0  0  0  0
   -0.2310   -0.7079   -0.8522 C   0  0  0  0  0  0  0  0  0  0  0  0
    0.4043    0.7670   -0.5360 C   0  0  2  0  0  0  0  0  0  0  0  0
    1.5112    0.1603    0.4513 C   0  0  0  0  0  0  0  0  0  0  0  0
    1.1922   -0.2761    1.5492 O   0  0  0  0  0  0  0  0  0  0  0  0
    2.4323   -0.6326   -0.3144 N   0  0  0  0  0  0  0  0  0  0  0  0
    3.5077   -1.2813    0.4344 C   0  0  0  0  0  0  0  0  0  0  0  0
    4.8434   -0.6344    0.1705 C   0  0  0  0  0  0  0  0  0  0  0  0
    4.9963    0.6310    1.0050 C   0  0  0  0  0  0  0  0  0  0  0  0
    6.2078    0.5380    1.8140 N   0  0  0  0  0  0  0  0  0  0  0  0
    7.1644   -0.3597    1.1820 C   0  0  0  0  0  0  0  0  0  0  0  0
    5.8316    0.0664    3.1278 C   0  0  0  0  0  0  0  0  0  0  0  0
    2.7711   -0.3045   -1.6674 C   0  0  0  0  0  0  0  0  0  0  0  0
    3.4548    0.7270   -1.9464 O   0  0  0  0  0  0  0  0  0  0  0  0
    2.4683   -1.1578   -2.7622 N   0  0  0  0  0  0  0  0  0  0  0  0
    2.5669   -0.6977   -4.1446 C   0  0  0  0  0  0  0  0  0  0  0  0
    3.0583    0.7428   -4.2073 C   0  0  0  0  0  0  0  0  0  0  0  0
   -0.6795    1.1571    0.6334 C   0  0  0  0  0  0  0  0  0  0  0  0
   -1.9994    0.5458   -0.0784 C   0  0  2  0  0  0  0  0  0  0  0  0
   -3.0778    1.2083    0.8926 C   0  0  0  0  0  0  0  0  0  0  0  0
   -3.2459    2.5809    0.7768 C   0  0  0  0  0  0  0  0  0  0  0  0
   -4.5354    3.0809    0.9243 C   0  0  0  0  0  0  0  0  0  0  0  0
   -5.6570    2.2639    0.8415 C   0  0  0  0  0  0  0  0  0  0  0  0
   -5.5004    0.8828    0.8135 C   0  0  0  0  0  0  0  0  0  0  0  0
   -6.3249   -0.1551    0.5192 N   0  0  0  0  0  0  0  0  0  0  0  0
   -5.5419   -1.2288    0.2461 C   0  0  0  0  0  0  0  0  0  0  0  0
   -4.2056   -0.8414    0.2094 C   0  0  0  0  0  0  0  0  0  0  0  0
   -4.2182    0.4114    0.8022 C   0  0  0  0  0  0  0  0  0  0  0  0
   -2.9467   -1.6192   -0.0413 C   0  0  0  0  0  0  0  0  0  0  0  0
   -1.9115   -0.8249    0.9384 C   0  0  1  0  0  0  0  0  0  0  0  0
  1  2  2  0
  2  3  1  0
  3  4  1  0
  4  5  1  0
  5  6  1  0
  6  7  1  1
  7  8  2  0
  7  9  1  0
  9 10  1  0
 10 11  1  0
 11 12  1  0
 12 13  1  0
 13 14  1  0
 13 15  1  0
  9 16  1  0
 16 17  2  0
 16 18  1  0
 18 19  1  0
 19 20  1  0
  6 21  1  0
 22 21  1  1
 22 23  1  0
 23 24  2  0
 24 25  1  0
 25 26  2  0
 26 27  1  0
 27 28  1  0
 28 29  1  0
 29 30  2  0
 30 31  1  0
 30 32  1  0
 33 32  1  6
 33  4  1  0
 33 22  1  0
 31 23  1  0
 31 27  2  0
M  END
>  <zinc_id>  (153) 
ZINC000003800008

>  <smiles>  (153) 
C=CCN1C[C@H](C(=O)N(CCCN(C)C)C(=O)NCC)C[C@@H]2c3cccc4[nH]cc(c34)C[C@H]21

$$$$

     RDKit          3D

 16 16  0  0  0  0  0  0  0  0999 V2000
   -0.1176    3.0775    0.4818 C   0  0  0  0  0  0  0  0  0  0  0  0
    0.7286    2.0708    0.7319 C   0  0  0  0  0  0  0  0  0  0  0  0
    0.2002    0.7183    0.9739 C   0  0  0  0  0  0  0  0  0  0  0  0
    0.2551   -0.1882   -0.2186 C   0  0  0  0  0  0  0  0  0  0  0  0
    1.6361   -0.4448   -0.7358 C   0  0  0  0  0  0  0  0  0  0  0  0
    2.6308   -0.8074    0.3149 C   0  0  0  0  0  0  0  0  0  0  0  0
    3.8019    0.1239    0.3960 C   0  0  0  0  0  0  0  0  0  0  0  0
    2.0340   -1.1742    1.6353 C   0  0  0  0  0  0  0  0  0  0  0  0
   -0.4564   -1.4464    0.1714 C   0  0  0  0  0  0  0  0  0  0  0  0
   -0.0196   -2.5394   -0.2990 O   0  0  0  0  0  0  0  0  0  0  0  0
   -1.8333   -1.2678    0.5295 N   0  0  0  0  0  0  0  0  0  0  0  0
   -2.5799   -0.1354    0.0635 C   0  0  0  0  0  0  0  0  0  0  0  0
   -3.6583    0.2349    0.6085 O   0  0  0  0  0  0  0  0  0  0  0  0
   -1.9765    0.5930   -1.0108 N   0  0  0  0  0  0  0  0  0  0  0  0
   -0.5872    0.4366   -1.2770 C   0  0  0  0  0  0  0  0  0  0  0  0
   -0.0579    0.7487   -2.3656 O   0  0  0  0  0  0  0  0  0  0  0  0
  1  2  2  0
  2  3  1  0
  3  4  1  0
  4  5  1  0
  5  6  1  0
  6  7  1  0
  6  8  1  0
  4  9  1  0
  9 10  2  0
  9 11  1  0
 11 12  1  0
 12 13  2  0
 12 14  1  0
 14 15  1  0
 15 16  2  0
 15  4  1  0
M  END
>  <zinc_id>  (154) 
ZINC000003830347

>  <smiles>  (154) 
C=CCC1(CC(C)C)C(=O)NC(=O)NC1=O

$$$$

     RDKit          3D

 30 33  0  0  0  0  0  0  0  0999 V2000
   -3.9669    0.2909   -2.0858 C   0  0  0  0  0  0  0  0  0  0  0  0
   -4.4944   -0.4808   -1.6540 C   0  0  0  0  0  0  0  0  0  0  0  0
   -3.9917   -0.7813   -0.2942 C   0  0  0  0  0  0  0  0  0  0  0  0
   -2.6955   -0.7139   -0.4591 C   0  0  0  0  0  0  0  0  0  0  0  0
   -2.0454    0.6127   -0.6961 C   0  0  0  0  0  0  0  0  0  0  0  0
   -1.4236    0.8464    0.4137 C   0  0  0  0  0  0  0  0  0  0  0  0
   -1.7389    0.1923    1.7316 C   0  0  0  0  0  0  0  0  0  0  0  0
   -0.9947   -1.1414    1.7851 C   0  0  0  0  0  0  0  0  0  0  0  0
    0.4636   -0.6958    1.8829 C   0  0  0  0  0  0  0  0  0  0  0  0
    0.7363   -0.0779    0.6032 C   0  0  1  0  0  0  0  0  0  0  0  0
    0.4524   -0.7788   -0.6339 C   0  0  0  0  0  0  0  0  0  0  0  0
    0.0550    1.4148    0.5666 C   0  0  1  0  0  0  0  0  0  0  0  0
    0.4530    1.5243   -1.0163 C   0  0  0  0  0  0  0  0  0  0  0  0
    1.8903    1.1400   -0.9952 C   0  0  0  0  0  0  0  0  0  0  0  0
    2.1778    0.6185    0.5148 C   0  0  2  0  0  0  0  0  0  0  0  0
    2.8923   -0.8099   -0.0659 C   0  0  2  0  0  0  0  0  0  0  0  0
    2.9042   -1.5343    1.3868 C   0  0  0  0  0  0  0  0  0  0  0  0
    4.3602   -0.2224    0.1619 C   0  0  0  0  0  0  0  0  0  0  0  0
    5.1366   -0.1026   -0.8629 C   0  0  0  0  0  0  0  0  0  0  0  0
    6.2010   -1.3020   -1.1428 C   0  0  1  0  0  0  0  0  0  0  0  0
    6.8880   -0.4849   -2.2284 O   0  0  0  0  0  0  0  0  0  0  0  0
    7.2788   -0.8099    0.0019 C   0  0  0  0  0  0  0  0  0  0  0  0
    6.7536   -0.6521    1.3323 C   0  0  0  0  0  0  0  0  0  0  0  0
    7.2246    0.5402    0.4564 C   0  0  0  0  0  0  0  0  0  0  0  0
   -4.7528   -1.3922    0.7674 C   0  0  0  0  0  0  0  0  0  0  0  0
   -6.0955   -0.4908    1.0815 C   0  0  1  0  0  0  0  0  0  0  0  0
   -5.3206    0.4392    2.0038 O   0  0  0  0  0  0  0  0  0  0  0  0
   -5.9384    0.5622   -0.1630 C   0  0  0  0  0  0  0  0  0  0  0  0
   -6.1149   -0.3520   -1.5254 C   0  0  2  0  0  0  0  0  0  0  0  0
   -6.2944   -1.7214   -0.8670 O   0  0  0  0  0  0  0  0  0  0  0  0
  1  2  2  0
  2  3  1  0
  3  4  2  0
  4  5  1  0
  5  6  2  0
  6  7  1  0
  7  8  1  0
  8  9  1  0
  9 10  1  0
 10 11  1  6
 10 12  1  0
 12 13  1  6
 13 14  1  0
 15 14  1  6
 15 16  1  0
 16 17  1  1
 16 18  1  0
 18 19  2  0
 20 19  1  1
 20 21  1  0
 20 22  1  0
 22 23  1  0
 23 24  1  0
  3 25  1  0
 25 26  1  0
 26 27  1  1
 26 28  1  0
 28 29  1  0
 29 30  1  1
 29  2  1  0
 12  6  1  0
 24 22  1  0
 15 10  1  0
M  END
>  <zinc_id>  (155) 
ZINC000003921872

>  <smiles>  (155) 
C=C1/C(=C\C=C2/CCC[C@@]3(C)[C@H]2CC[C@@H]3[C@H](C)/C=C/[C@@H](O)C2CC2)C[C@@H](O)C[C@@H]1O

$$$$

     RDKit          3D

 29 31  0  0  0  0  0  0  0  0999 V2000
    7.2000   -0.6003   -0.8365 C   0  0  0  0  0  0  0  0  0  0  0  0
    6.6580    0.1497    0.2887 N   0  0  0  0  0  0  0  0  0  0  0  0
    6.8338    1.5617   -0.0415 C   0  0  0  0  0  0  0  0  0  0  0  0
    5.2276   -0.1241    0.3418 C   0  0  0  0  0  0  0  0  0  0  0  0
    4.6454    0.3866   -0.9697 C   0  0  0  0  0  0  0  0  0  0  0  0
    3.6901    1.3660   -0.6235 O   0  0  0  0  0  0  0  0  0  0  0  0
    2.4009    0.9057   -0.3470 C   0  0  0  0  0  0  0  0  0  0  0  0
    2.0306    0.7280    0.9804 C   0  0  0  0  0  0  0  0  0  0  0  0
    0.7509    0.2415    1.1896 C   0  0  0  0  0  0  0  0  0  0  0  0
   -0.0463   -0.1112    0.1073 C   0  0  0  0  0  0  0  0  0  0  0  0
   -1.3838   -0.6296    0.2988 C   0  0  0  0  0  0  0  0  0  0  0  0
   -2.4662    0.1427    0.3900 C   0  0  0  0  0  0  0  0  0  0  0  0
   -3.6967   -0.5116    0.8598 C   0  0  0  0  0  0  0  0  0  0  0  0
   -4.8823    0.3969    0.9459 C   0  0  0  0  0  0  0  0  0  0  0  0
   -5.9021    0.1012   -0.4808 Cl  0  0  0  0  0  0  0  0  0  0  0  0
   -2.3614    1.5302   -0.0220 C   0  0  0  0  0  0  0  0  0  0  0  0
   -1.4767    1.9459   -1.0114 C   0  0  0  0  0  0  0  0  0  0  0  0
   -1.1232    3.2786   -1.1675 C   0  0  0  0  0  0  0  0  0  0  0  0
   -1.7286    4.1667   -0.3000 C   0  0  0  0  0  0  0  0  0  0  0  0
   -2.9593    3.8572    0.2378 C   0  0  0  0  0  0  0  0  0  0  0  0
   -3.2667    2.5086    0.3741 C   0  0  0  0  0  0  0  0  0  0  0  0
   -1.5010   -2.0817    0.4867 C   0  0  0  0  0  0  0  0  0  0  0  0
   -2.6465   -2.6462    1.0149 C   0  0  0  0  0  0  0  0  0  0  0  0
   -3.0417   -3.9103    0.6126 C   0  0  0  0  0  0  0  0  0  0  0  0
   -2.1017   -4.7818    0.1341 C   0  0  0  0  0  0  0  0  0  0  0  0
   -0.8467   -4.2983   -0.1712 C   0  0  0  0  0  0  0  0  0  0  0  0
   -0.5598   -2.9550   -0.0365 C   0  0  0  0  0  0  0  0  0  0  0  0
    0.6517   -0.5737   -1.0021 C   0  0  0  0  0  0  0  0  0  0  0  0
    1.9016   -0.0431   -1.2311 C   0  0  0  0  0  0  0  0  0  0  0  0
  1  2  1  0
  2  3  1  0
  2  4  1  0
  4  5  1  0
  5  6  1  0
  6  7  1  0
  7  8  2  0
  8  9  1  0
  9 10  2  0
 10 11  1  0
 11 12  2  0
 12 13  1  0
 13 14  1  0
 14 15  1  0
 12 16  1  0
 16 17  2  0
 17 18  1  0
 18 19  2  0
 19 20  1  0
 20 21  2  0
 11 22  1  0
 22 23  2  0
 23 24  1  0
 24 25  2  0
 25 26  1  0
 26 27  2  0
 10 28  1  0
 28 29  2  0
 29  7  1  0
 21 16  1  0
 27 22  1  0
M  END
>  <zinc_id>  (156) 
ZINC000012404516

>  <smiles>  (156) 
CN(C)CCOc1ccc(/C(=C(/CCCl)c2ccccc2)c2ccccc2)cc1

$$$$

     RDKit          3D

 29 32  0  0  0  0  0  0  0  0999 V2000
   -4.6749    1.2721   -0.2945 C   0  0  0  0  0  0  0  0  0  0  0  0
   -4.5972    0.0077    0.1495 C   0  0  2  0  0  0  0  0  0  0  0  0
   -3.9389   -0.3581    1.3975 C   0  0  0  0  0  0  0  0  0  0  0  0
   -2.5215    0.1439    1.2362 C   0  0  0  0  0  0  0  0  0  0  0  0
   -1.8378   -0.7447    0.0549 C   0  0  2  0  0  0  0  0  0  0  0  0
   -0.5900    0.2120   -0.1612 C   0  0  0  0  0  0  0  0  0  0  0  0
   -0.2472    1.1803    0.6854 C   0  0  0  0  0  0  0  0  0  0  0  0
    1.0255    1.7292    0.5567 C   0  0  0  0  0  0  0  0  0  0  0  0
    1.9006    1.2880   -0.4313 C   0  0  0  0  0  0  0  0  0  0  0  0
    3.2621    1.0949   -0.1619 O   0  0  0  0  0  0  0  0  0  0  0  0
    3.6848    0.6702    1.1021 C   0  0  0  0  0  0  0  0  0  0  0  0
    2.7886    0.7482    1.9979 O   0  0  0  0  0  0  0  0  0  0  0  0
    4.6904   -0.3201    1.2904 N   0  0  0  0  0  0  0  0  0  0  0  0
    5.2252   -0.4111    2.6476 C   0  0  0  0  0  0  0  0  0  0  0  0
    5.8689    0.8643    3.0924 C   0  0  0  0  0  0  0  0  0  0  0  0
    7.0391    1.4185    1.8891 Cl  0  0  0  0  0  0  0  0  0  0  0  0
    4.7241   -1.5731    0.5535 C   0  0  0  0  0  0  0  0  0  0  0  0
    4.5208   -1.3932   -0.9193 C   0  0  0  0  0  0  0  0  0  0  0  0
    5.6949   -0.3182   -1.6781 Cl  0  0  0  0  0  0  0  0  0  0  0  0
    1.2701    0.6796   -1.5114 C   0  0  0  0  0  0  0  0  0  0  0  0
   -0.0118    0.1762   -1.4207 C   0  0  0  0  0  0  0  0  0  0  0  0
   -0.6468   -0.4838   -2.5788 C   0  0  0  0  0  0  0  0  0  0  0  0
   -2.0585   -0.8732   -2.3328 C   0  0  0  0  0  0  0  0  0  0  0  0
   -2.6762    0.0486   -1.1780 C   0  0  1  0  0  0  0  0  0  0  0  0
   -3.9866   -0.9840   -0.9721 C   0  0  2  0  0  0  0  0  0  0  0  0
   -4.8705   -0.2371   -2.1004 C   0  0  0  0  0  0  0  0  0  0  0  0
   -6.2311   -0.2127   -1.5238 C   0  0  0  0  0  0  0  0  0  0  0  0
   -6.0238   -0.7793    0.0084 C   0  0  2  0  0  0  0  0  0  0  0  0
   -6.7824    0.3970    0.6028 O   0  0  0  0  0  0  0  0  0  0  0  0
  2  1  1  6
  2  3  1  0
  3  4  1  0
  5  4  1  1
  5  6  1  0
  6  7  2  0
  7  8  1  0
  8  9  2  0
  9 10  1  0
 10 11  1  0
 11 12  2  0
 11 13  1  0
 13 14  1  0
 14 15  1  0
 15 16  1  0
 13 17  1  0
 17 18  1  0
 18 19  1  0
  9 20  1  0
 20 21  2  0
 21 22  1  0
 22 23  1  0
 24 23  1  6
 24 25  1  0
 25 26  1  6
 26 27  1  0
 27 28  1  0
 28 29  1  1
 25  2  1  0
 28  2  1  0
 24  5  1  0
 21  6  1  0
M  END
>  <zinc_id>  (157) 
ZINC000004099032

>  <smiles>  (157) 
C[C@]12CC[C@@H]3c4ccc(OC(=O)N(CCCl)CCCl)cc4CC[C@H]3[C@@H]1CC[C@@H]2O

$$$$

     RDKit          3D

 11 11  0  0  0  0  0  0  0  0999 V2000
   -3.4343    1.1225   -0.2107 N   0  0  0  0  0  0  0  0  0  0  0  0
   -2.3830    0.1657   -0.0716 C   0  0  0  0  0  0  0  0  0  0  0  0
   -1.7499   -0.0491    1.1454 C   0  0  0  0  0  0  0  0  0  0  0  0
   -0.4125   -0.4248    1.1759 C   0  0  0  0  0  0  0  0  0  0  0  0
    0.3503   -0.4444    0.0159 C   0  0  0  0  0  0  0  0  0  0  0  0
    2.0589   -0.0304    0.0882 S   0  0  0  0  0  0  0  0  0  0  0  0
    2.2946    1.3299   -0.9633 N   0  0  0  0  0  0  0  0  0  0  0  0
    2.9221   -1.1955   -0.3203 O   0  0  0  0  0  0  0  0  0  0  0  0
    2.4147    0.4250    1.4815 O   0  0  0  0  0  0  0  0  0  0  0  0
   -0.3429   -0.5475   -1.1653 C   0  0  0  0  0  0  0  0  0  0  0  0
   -1.7180   -0.3513   -1.1757 C   0  0  0  0  0  0  0  0  0  0  0  0
  1  2  1  0
  2  3  2  0
  3  4  1  0
  4  5  2  0
  5  6  1  0
  6  7  1  0
  6  8  2  0
  6  9  2  0
  5 10  1  0
 10 11  2  0
 11  2  1  0
M  END
>  <zinc_id>  (158) 
ZINC000000002101

>  <smiles>  (158) 
Nc1ccc(S(N)(=O)=O)cc1

$$$$

     RDKit          3D

 26 27  0  0  0  0  0  0  0  0999 V2000
    5.0778    0.9638   -0.9990 C   0  0  0  0  0  0  0  0  0  0  0  0
    5.3106    0.4807   -0.7283 C   0  0  0  0  0  0  0  0  0  0  0  0
    6.0398   -0.0753    0.4031 N   0  0  0  0  0  0  0  0  0  0  0  0
    6.4794   -1.4220    0.1255 C   0  0  0  0  0  0  0  0  0  0  0  0
    5.3273   -2.3219   -0.2471 C   0  0  0  0  0  0  0  0  0  0  0  0
    5.2108   -0.0422    1.6048 C   0  0  0  0  0  0  0  0  0  0  0  0
    3.7840   -0.0613    1.2350 C   0  0  0  0  0  0  0  0  0  0  0  0
    2.6914    0.1643    0.7702 C   0  0  0  0  0  0  0  0  0  0  0  0
    1.5848    0.8947    0.1278 C   0  0  0  0  0  0  0  0  0  0  0  0
    0.4121    0.1339    0.4068 O   0  0  0  0  0  0  0  0  0  0  0  0
   -0.7262    0.7057    0.9784 C   0  0  0  0  0  0  0  0  0  0  0  0
   -0.5078    1.6208    1.8233 O   0  0  0  0  0  0  0  0  0  0  0  0
   -2.0750    0.6305    0.3543 C   0  0  1  0  0  0  0  0  0  0  0  0
   -2.2509    1.8163   -0.3768 O   0  0  0  0  0  0  0  0  0  0  0  0
   -2.1124   -0.5383   -0.5716 C   0  0  0  0  0  0  0  0  0  0  0  0
   -1.4871   -0.3838   -1.7988 C   0  0  0  0  0  0  0  0  0  0  0  0
   -0.9410   -1.4343   -2.4875 C   0  0  0  0  0  0  0  0  0  0  0  0
   -0.9506   -2.6834   -1.9262 C   0  0  0  0  0  0  0  0  0  0  0  0
   -1.6657   -2.8762   -0.7647 C   0  0  0  0  0  0  0  0  0  0  0  0
   -2.0235   -1.7861    0.0073 C   0  0  0  0  0  0  0  0  0  0  0  0
   -3.1790    0.5003    1.3631 C   0  0  0  0  0  0  0  0  0  0  0  0
   -4.2947   -0.2869    0.7106 C   0  0  0  0  0  0  0  0  0  0  0  0
   -5.0271    0.5394   -0.3284 C   0  0  0  0  0  0  0  0  0  0  0  0
   -5.6928    1.7368    0.2933 C   0  0  0  0  0  0  0  0  0  0  0  0
   -5.2530    1.8697    1.7381 C   0  0  0  0  0  0  0  0  0  0  0  0
   -3.7309    1.8545    1.7415 C   0  0  0  0  0  0  0  0  0  0  0  0
  1  2  1  0
  2  3  1  0
  3  4  1  0
  4  5  1  0
  3  6  1  0
  6  7  1  0
  7  8  3  0
  8  9  1  0
  9 10  1  0
 10 11  1  0
 11 12  2  0
 13 11  1  1
 13 14  1  0
 13 15  1  0
 15 16  2  0
 16 17  1  0
 17 18  2  0
 18 19  1  0
 19 20  2  0
 13 21  1  0
 21 22  1  0
 22 23  1  0
 23 24  1  0
 24 25  1  0
 25 26  1  0
 20 15  1  0
 26 21  1  0
M  END
>  <zinc_id>  (159) 
ZINC000001530751

>  <smiles>  (159) 
CCN(CC)CC#CCOC(=O)[C@@](O)(c1ccccc1)C1CCCCC1

$$$$

     RDKit          3D

 22 23  0  0  0  0  0  0  0  0999 V2000
   -0.1200   -2.8009    0.6043 C   0  0  0  0  0  0  0  0  0  0  0  0
   -0.5929   -1.4410    0.7735 N   0  0  0  0  0  0  0  0  0  0  0  0
    0.4317   -0.5400    1.2326 C   0  0  0  0  0  0  0  0  0  0  0  0
    1.5728   -0.4336    0.2811 C   0  0  0  0  0  0  0  0  0  0  0  0
    2.6477   -1.1841    0.3364 C   0  0  0  0  0  0  0  0  0  0  0  0
    3.9923   -0.6751    0.2159 C   0  0  0  0  0  0  0  0  0  0  0  0
    5.1190   -0.2183    0.2281 C   0  0  0  0  0  0  0  0  0  0  0  0
    6.3273    0.5510    0.5695 C   0  0  0  0  0  0  0  0  0  0  0  0
    7.2480    0.4232   -0.6385 C   0  0  0  0  0  0  0  0  0  0  0  0
    6.0134    2.0043    0.8435 C   0  0  0  0  0  0  0  0  0  0  0  0
    6.9821   -0.0281    1.8130 C   0  0  0  0  0  0  0  0  0  0  0  0
   -1.1224   -0.9101   -0.4811 C   0  0  0  0  0  0  0  0  0  0  0  0
   -2.1264    0.1254   -0.0881 C   0  0  0  0  0  0  0  0  0  0  0  0
   -1.7198    1.3302    0.4667 C   0  0  0  0  0  0  0  0  0  0  0  0
   -2.6149    2.3899    0.5565 C   0  0  0  0  0  0  0  0  0  0  0  0
   -3.9267    2.2110    0.1725 C   0  0  0  0  0  0  0  0  0  0  0  0
   -4.2932    1.0775   -0.5434 C   0  0  0  0  0  0  0  0  0  0  0  0
   -5.5784    0.9371   -1.0202 C   0  0  0  0  0  0  0  0  0  0  0  0
   -5.9979   -0.3541   -1.2828 C   0  0  0  0  0  0  0  0  0  0  0  0
   -5.1017   -1.3913   -1.4870 C   0  0  0  0  0  0  0  0  0  0  0  0
   -3.7695   -1.1442   -1.1955 C   0  0  0  0  0  0  0  0  0  0  0  0
   -3.3706    0.0713   -0.6535 C   0  0  0  0  0  0  0  0  0  0  0  0
  1  2  1  0
  2  3  1  0
  3  4  1  0
  4  5  2  0
  5  6  1  0
  6  7  3  0
  7  8  1  0
  8  9  1  0
  8 10  1  0
  8 11  1  0
  2 12  1  0
 12 13  1  0
 13 14  2  0
 14 15  1  0
 15 16  2  0
 16 17  1  0
 17 18  2  0
 18 19  1  0
 19 20  2  0
 20 21  1  0
 21 22  2  0
 22 13  1  0
 22 17  1  0
M  END
>  <zinc_id>  (160) 
ZINC000001530981

>  <smiles>  (160) 
CN(C/C=C/C#CC(C)(C)C)Cc1cccc2ccccc12

$$$$

     RDKit          3D

 19 20  0  0  0  0  0  0  0  0999 V2000
   -3.5684    3.2866    1.0581 C   0  0  0  0  0  0  0  0  0  0  0  0
   -2.5511    3.0590    0.2148 O   0  0  0  0  0  0  0  0  0  0  0  0
   -1.9940    1.7803    0.1631 C   0  0  0  0  0  0  0  0  0  0  0  0
   -2.8418    0.6897    0.3243 C   0  0  0  0  0  0  0  0  0  0  0  0
   -2.3227   -0.5754    0.1746 C   0  0  0  0  0  0  0  0  0  0  0  0
   -3.2162   -1.6247   -0.0081 C   0  0  0  0  0  0  0  0  0  0  0  0
   -2.7340   -2.8781   -0.3611 C   0  0  0  0  0  0  0  0  0  0  0  0
   -1.3714   -3.0424   -0.4928 C   0  0  0  0  0  0  0  0  0  0  0  0
   -0.5451   -1.9848   -0.3737 N   0  0  0  0  0  0  0  0  0  0  0  0
   -1.0073   -0.7232   -0.1906 C   0  0  0  0  0  0  0  0  0  0  0  0
   -0.2361    0.3633   -0.5441 C   0  0  0  0  0  0  0  0  0  0  0  0
    1.0532    0.1656   -1.1081 N   0  0  0  0  0  0  0  0  0  0  0  0
    2.2399    0.7086   -0.1829 C   0  0  1  0  0  0  0  0  0  0  0  0
    1.7578   -0.2666    1.0861 C   0  0  0  0  0  0  0  0  0  0  0  0
    3.2772   -0.4632   -0.7660 C   0  0  0  0  0  0  0  0  0  0  0  0
    4.0503   -0.9314    0.4230 C   0  0  0  0  0  0  0  0  0  0  0  0
    5.3730   -0.2568    0.6132 C   0  0  0  0  0  0  0  0  0  0  0  0
    5.4361    1.0700    0.0604 N   0  0  0  0  0  0  0  0  0  0  0  0
   -0.7994    1.6235   -0.5020 C   0  0  0  0  0  0  0  0  0  0  0  0
  1  2  1  0
  2  3  1  0
  3  4  2  0
  4  5  1  0
  5  6  2  0
  6  7  1  0
  7  8  2  0
  8  9  1  0
  9 10  2  0
 10 11  1  0
 11 12  1  0
 13 12  1  6
 13 14  1  0
 13 15  1  0
 15 16  1  0
 16 17  1  0
 17 18  1  0
 11 19  2  0
 19  3  1  0
 10  5  1  0
M  END
>  <zinc_id>  (161) 
ZINC000001530862

>  <smiles>  (161) 
COc1cc(N[C@@H](C)CCCN)c2ncccc2c1

$$$$

     RDKit          3D

 37 40  0  0  0  0  0  0  0  0999 V2000
    7.9813    1.4611    0.6209 C   0  0  0  0  0  0  0  0  0  0  0  0
    7.5626    0.1854   -0.0547 C   0  0  0  0  0  0  0  0  0  0  0  0
    8.2533    0.0752   -1.3852 C   0  0  0  0  0  0  0  0  0  0  0  0
    7.8851   -0.9802    0.7910 C   0  0  0  0  0  0  0  0  0  0  0  0
    9.0488   -1.4277    0.8203 O   0  0  0  0  0  0  0  0  0  0  0  0
    6.9950   -1.2739    1.8287 O   0  0  0  0  0  0  0  0  0  0  0  0
    6.0890    0.1826   -0.3208 C   0  0  0  0  0  0  0  0  0  0  0  0
    5.5495   -0.6688   -1.2792 C   0  0  0  0  0  0  0  0  0  0  0  0
    4.2810   -0.4491   -1.8105 C   0  0  0  0  0  0  0  0  0  0  0  0
    3.7204    0.7196   -1.4607 C   0  0  0  0  0  0  0  0  0  0  0  0
    2.2057    1.0324   -2.0246 C   0  0  1  0  0  0  0  0  0  0  0  0
    2.5822    0.5916   -3.4661 O   0  0  0  0  0  0  0  0  0  0  0  0
    1.6568   -0.5181   -1.6442 C   0  0  0  0  0  0  0  0  0  0  0  0
    1.2810   -0.4193   -0.1917 C   0  0  0  0  0  0  0  0  0  0  0  0
    1.0227    0.9860    0.2614 C   0  0  0  0  0  0  0  0  0  0  0  0
   -0.3751    1.3440    0.2411 N   0  0  0  0  0  0  0  0  0  0  0  0
   -0.9588    0.7694   -0.9362 C   0  0  0  0  0  0  0  0  0  0  0  0
   -2.4207    0.4667   -0.8110 C   0  0  0  0  0  0  0  0  0  0  0  0
   -2.6070   -0.5102    0.3058 C   0  0  0  0  0  0  0  0  0  0  0  0
   -4.0001   -0.9566    0.5334 C   0  0  0  0  0  0  0  0  0  0  0  0
   -3.9973   -2.3584    0.6256 O   0  0  0  0  0  0  0  0  0  0  0  0
   -4.6387   -0.4583    1.7625 C   0  0  0  0  0  0  0  0  0  0  0  0
   -5.8932   -0.9882    2.0461 C   0  0  0  0  0  0  0  0  0  0  0  0
   -6.8135   -0.3141    2.8326 C   0  0  0  0  0  0  0  0  0  0  0  0
   -6.4736    0.8757    3.4384 C   0  0  0  0  0  0  0  0  0  0  0  0
   -5.1412    1.2402    3.3711 C   0  0  0  0  0  0  0  0  0  0  0  0
   -4.2890    0.7038    2.4146 C   0  0  0  0  0  0  0  0  0  0  0  0
   -4.8783   -0.6099   -0.6290 C   0  0  0  0  0  0  0  0  0  0  0  0
   -5.8179   -1.5229   -1.0902 C   0  0  0  0  0  0  0  0  0  0  0  0
   -6.8940   -1.0595   -1.8336 C   0  0  0  0  0  0  0  0  0  0  0  0
   -6.7026    0.1165   -2.5416 C   0  0  0  0  0  0  0  0  0  0  0  0
   -5.6891    0.9845   -2.1535 C   0  0  0  0  0  0  0  0  0  0  0  0
   -5.1150    0.7285   -0.9178 C   0  0  0  0  0  0  0  0  0  0  0  0
   -1.7892   -0.2311    1.5167 C   0  0  0  0  0  0  0  0  0  0  0  0
   -1.0752    1.0849    1.4564 C   0  0  0  0  0  0  0  0  0  0  0  0
    4.1647    1.6003   -0.5140 C   0  0  0  0  0  0  0  0  0  0  0  0
    5.2905    1.1960    0.1983 C   0  0  0  0  0  0  0  0  0  0  0  0
  1  2  1  0
  2  3  1  0
  2  4  1  0
  4  5  2  0
  4  6  1  0
  2  7  1  0
  7  8  2  0
  8  9  1  0
  9 10  2  0
 11 10  1  1
 11 12  1  0
 11 13  1  0
 13 14  1  0
 14 15  1  0
 15 16  1  0
 16 17  1  0
 17 18  1  0
 18 19  1  0
 19 20  1  0
 20 21  1  0
 20 22  1  0
 22 23  2  0
 23 24  1  0
 24 25  2  0
 25 26  1  0
 26 27  2  0
 20 28  1  0
 28 29  2  0
 29 30  1  0
 30 31  2  0
 31 32  1  0
 32 33  2  0
 19 34  1  0
 34 35  1  0
 10 36  1  0
 36 37  2  0
 37  7  1  0
 35 16  1  0
 27 22  1  0
 33 28  1  0
M  END
>  <zinc_id>  (162) 
ZINC000003824921

>  <smiles>  (162) 
CC(C)(C(=O)O)c1ccc([C@@H](O)CCCN2CCC(C(O)(c3ccccc3)c3ccccc3)CC2)cc1

$$$$

     RDKit          3D

 38 43  0  0  0  0  0  0  0  0999 V2000
    7.5102   -0.6658    0.1400 C   0  0  0  0  0  0  0  0  0  0  0  0
    6.6712   -0.4388    0.0315 C   0  0  0  0  0  0  0  0  0  0  0  0
    5.4121   -0.7703    0.7930 C   0  0  0  0  0  0  0  0  0  0  0  0
    4.5858    0.2809    0.3541 N   0  0  0  0  0  0  0  0  0  0  0  0
    3.3013    0.4614    1.1996 C   0  0  1  0  0  0  0  0  0  0  0  0
    2.3717    1.1376    0.0399 C   0  0  0  0  0  0  0  0  0  0  0  0
    1.1085    0.7608    0.9980 C   0  0  1  0  0  0  0  0  0  0  0  0
   -0.0788    1.1923   -0.1150 C   0  0  2  0  0  0  0  0  0  0  0  0
   -0.3693    2.5835    0.6238 C   0  0  0  0  0  0  0  0  0  0  0  0
   -1.6556    3.1487    0.1266 C   0  0  0  0  0  0  0  0  0  0  0  0
   -2.8610    2.2559    0.7786 C   0  0  1  0  0  0  0  0  0  0  0  0
   -3.9329    2.8486   -0.2830 C   0  0  0  0  0  0  0  0  0  0  0  0
   -4.7899    1.5683   -0.8062 C   0  0  2  0  0  0  0  0  0  0  0  0
   -6.1056    2.2415   -0.4915 O   0  0  0  0  0  0  0  0  0  0  0  0
   -4.8074    0.7796    0.7145 C   0  0  1  0  0  0  0  0  0  0  0  0
   -5.8609   -0.2551    0.2236 N   0  0  0  0  0  0  0  0  0  0  0  0
   -5.4944   -0.7096   -1.0704 C   0  0  0  0  0  0  0  0  0  0  0  0
   -5.9480   -2.1493   -1.2027 C   0  0  0  0  0  0  0  0  0  0  0  0
   -5.1236   -2.9037   -0.3837 O   0  0  0  0  0  0  0  0  0  0  0  0
   -5.0767   -2.4591    0.9223 C   0  0  0  0  0  0  0  0  0  0  0  0
   -5.9811   -1.2844    1.1916 C   0  0  0  0  0  0  0  0  0  0  0  0
   -3.5337   -0.1154    0.2392 C   0  0  0  0  0  0  0  0  0  0  0  0
   -2.4841    0.9222   -0.0734 C   0  0  1  0  0  0  0  0  0  0  0  0
   -2.1663    1.2190   -1.4260 C   0  0  0  0  0  0  0  0  0  0  0  0
   -1.2376    0.3868    0.8045 C   0  0  1  0  0  0  0  0  0  0  0  0
   -1.0315   -0.9818   -0.0429 C   0  0  0  0  0  0  0  0  0  0  0  0
    0.1646   -1.5753    0.7116 C   0  0  0  0  0  0  0  0  0  0  0  0
    1.2686   -0.6907    0.3291 C   0  0  1  0  0  0  0  0  0  0  0  0
    1.3596   -0.5921   -1.1124 C   0  0  0  0  0  0  0  0  0  0  0  0
    2.6357   -1.1143    1.0735 C   0  0  1  0  0  0  0  0  0  0  0  0
    3.3108   -1.5781   -0.2228 O   0  0  0  0  0  0  0  0  0  0  0  0
    3.0998   -2.9747   -0.1703 C   0  0  0  0  0  0  0  0  0  0  0  0
    3.6311   -3.8745   -1.2522 C   0  0  0  0  0  0  0  0  0  0  0  0
    3.0458   -3.6103    0.9342 O   0  0  0  0  0  0  0  0  0  0  0  0
    5.3374    1.4165    0.9599 C   0  0  0  0  0  0  0  0  0  0  0  0
    4.6684    2.6549    0.4024 C   0  0  0  0  0  0  0  0  0  0  0  0
    4.5453    2.1899   -1.0597 C   0  0  0  0  0  0  0  0  0  0  0  0
    4.5106    0.6946   -0.9382 C   0  0  0  0  0  0  0  0  0  0  0  0
  1  2  2  0
  2  3  1  0
  3  4  1  0
  5  4  1  6
  5  6  1  0
  7  6  1  6
  7  8  1  0
  8  9  1  1
  9 10  1  0
 11 10  1  6
 11 12  1  0
 12 13  1  0
 13 14  1  1
 13 15  1  0
 15 16  1  6
 16 17  1  0
 17 18  1  0
 18 19  1  0
 19 20  1  0
 20 21  1  0
 15 22  1  0
 22 23  1  0
 23 24  1  6
 23 25  1  0
 25 26  1  6
 26 27  1  0
 27 28  1  0
 28 29  1  6
 28 30  1  0
 30 31  1  6
 31 32  1  0
 32 33  1  0
 32 34  2  0
  4 35  1  0
 35 36  1  0
 36 37  1  0
 37 38  1  0
 38  4  1  0
 30  5  1  0
 28  7  1  0
 25  8  1  0
 23 11  1  0
 21 16  1  0
M  CHG  1   4   1
M  END
>  <zinc_id>  (163) 
ZINC000053229445

>  <smiles>  (163) 
C=CC[N+]1([C@H]2C[C@H]3[C@@H]4CC[C@H]5C[C@H](O)[C@@H](N6CCOCC6)C[C@]5(C)[C@H]4CC[C@]3(C)[C@H]2OC(C)=O)CCCC1

$$$$

     RDKit          3D

 19 20  0  0  0  0  0  0  0  0999 V2000
    3.8351    3.1478   -0.2636 C   0  0  0  0  0  0  0  0  0  0  0  0
    3.9894    1.9876    0.6873 C   0  0  0  0  0  0  0  0  0  0  0  0
    2.7132    1.2188    0.8926 C   0  0  0  0  0  0  0  0  0  0  0  0
    2.1240    0.7456   -0.3332 N   0  0  0  0  0  0  0  0  0  0  0  0
    2.6154   -0.5981   -0.6247 C   0  0  0  0  0  0  0  0  0  0  0  0
    4.1032   -0.4608   -0.9273 C   0  0  0  0  0  0  0  0  0  0  0  0
    4.8403   -1.3610    0.0521 C   0  0  0  0  0  0  0  0  0  0  0  0
    0.6800    0.6541   -0.1304 C   0  0  0  0  0  0  0  0  0  0  0  0
    0.0922    0.0061   -1.3803 C   0  0  0  0  0  0  0  0  0  0  0  0
   -0.9751   -0.9197   -0.8814 C   0  0  0  0  0  0  0  0  0  0  0  0
   -0.5993   -2.1415   -0.3387 C   0  0  0  0  0  0  0  0  0  0  0  0
   -1.5055   -2.8897    0.3969 C   0  0  0  0  0  0  0  0  0  0  0  0
   -2.5443   -2.1870    0.9839 C   0  0  0  0  0  0  0  0  0  0  0  0
   -3.0171   -1.0000    0.4352 C   0  0  0  0  0  0  0  0  0  0  0  0
   -2.2609   -0.4946   -0.6160 C   0  0  0  0  0  0  0  0  0  0  0  0
   -3.0020    0.6605   -1.1459 C   0  0  0  0  0  0  0  0  0  0  0  0
   -3.6846    1.1827    0.0797 C   0  0  0  0  0  0  0  0  0  0  0  0
   -3.5507    2.3990    0.4161 O   0  0  0  0  0  0  0  0  0  0  0  0
   -3.8532    0.0503    0.9402 N   0  0  0  0  0  0  0  0  0  0  0  0
  1  2  1  0
  2  3  1  0
  3  4  1  0
  4  5  1  0
  5  6  1  0
  6  7  1  0
  4  8  1  0
  8  9  1  0
  9 10  1  0
 10 11  2  0
 11 12  1  0
 12 13  2  0
 13 14  1  0
 14 15  2  0
 15 16  1  0
 16 17  1  0
 17 18  2  0
 17 19  1  0
 15 10  1  0
 19 14  1  0
M  END
>  <zinc_id>  (164) 
ZINC000000002041

>  <smiles>  (164) 
CCCN(CCC)CCc1cccc2c1CC(=O)N2

$$$$

     RDKit          3D

 35 38  0  0  0  0  0  0  0  0999 V2000
   -5.4115    3.3718    1.6633 C   0  0  0  0  0  0  0  0  0  0  0  0
   -4.3051    3.5538    0.6321 C   0  0  0  0  0  0  0  0  0  0  0  0
   -4.9191    4.2008   -0.5912 C   0  0  0  0  0  0  0  0  0  0  0  0
   -3.1515    4.3349    1.1862 C   0  0  0  0  0  0  0  0  0  0  0  0
   -3.7956    2.2174    0.2095 C   0  0  0  0  0  0  0  0  0  0  0  0
   -2.5301    1.7964    0.0189 N   0  0  0  0  0  0  0  0  0  0  0  0
   -2.4028    0.4789    0.1845 C   0  0  0  0  0  0  0  0  0  0  0  0
   -1.1655   -0.1763    0.6359 C   0  0  0  0  0  0  0  0  0  0  0  0
   -1.0740   -0.3921    2.0058 C   0  0  0  0  0  0  0  0  0  0  0  0
    0.0713   -0.9855    2.5158 C   0  0  0  0  0  0  0  0  0  0  0  0
    1.1299   -1.1791    1.6384 C   0  0  0  0  0  0  0  0  0  0  0  0
    1.2405   -0.2483    0.6118 C   0  0  0  0  0  0  0  0  0  0  0  0
    2.4503   -0.3215   -0.1502 N   0  0  0  0  0  0  0  0  0  0  0  0
    3.6866    0.8640   -0.0749 S   0  0  0  0  0  0  0  0  0  0  0  0
    3.7150    1.6163   -1.3801 O   0  0  0  0  0  0  0  0  0  0  0  0
    3.4797    1.8561    1.0217 O   0  0  0  0  0  0  0  0  0  0  0  0
    5.2746    0.1508    0.1301 C   0  0  0  0  0  0  0  0  0  0  0  0
    5.6451   -1.0304   -0.4993 C   0  0  0  0  0  0  0  0  0  0  0  0
    4.7653   -1.6616   -1.3096 F   0  0  0  0  0  0  0  0  0  0  0  0
    6.9020   -1.5614   -0.3073 C   0  0  0  0  0  0  0  0  0  0  0  0
    7.8765   -0.7935    0.3154 C   0  0  0  0  0  0  0  0  0  0  0  0
    7.6154    0.5517    0.5388 C   0  0  0  0  0  0  0  0  0  0  0  0
    6.3000    0.9967    0.5234 C   0  0  0  0  0  0  0  0  0  0  0  0
    6.0365    2.2562    0.9174 F   0  0  0  0  0  0  0  0  0  0  0  0
    0.0393    0.0853   -0.0040 C   0  0  0  0  0  0  0  0  0  0  0  0
    0.0634    0.8181   -1.1507 F   0  0  0  0  0  0  0  0  0  0  0  0
   -3.3510   -0.2232   -0.5542 C   0  0  0  0  0  0  0  0  0  0  0  0
   -3.4102   -1.6749   -0.7832 C   0  0  0  0  0  0  0  0  0  0  0  0
   -2.6689   -2.5254    0.0277 C   0  0  0  0  0  0  0  0  0  0  0  0
   -3.1944   -3.7121    0.5191 C   0  0  0  0  0  0  0  0  0  0  0  0
   -4.4714   -4.0431    0.2091 N   0  0  0  0  0  0  0  0  0  0  0  0
   -4.9778   -3.4450   -0.8942 C   0  0  0  0  0  0  0  0  0  0  0  0
   -6.2286   -3.8843   -1.4317 N   0  0  0  0  0  0  0  0  0  0  0  0
   -4.5815   -2.1927   -1.2268 N   0  0  0  0  0  0  0  0  0  0  0  0
   -4.6522    0.9014   -0.4873 S   0  0  0  0  0  0  0  0  0  0  0  0
  1  2  1  0
  2  3  1  0
  2  4  1  0
  2  5  1  0
  5  6  2  0
  6  7  1  0
  7  8  1  0
  8  9  2  0
  9 10  1  0
 10 11  2  0
 11 12  1  0
 12 13  1  0
 13 14  1  0
 14 15  2  0
 14 16  2  0
 14 17  1  0
 17 18  2  0
 18 19  1  0
 18 20  1  0
 20 21  2  0
 21 22  1  0
 22 23  2  0
 23 24  1  0
 12 25  2  0
 25 26  1  0
  7 27  2  0
 27 28  1  0
 28 29  2  0
 29 30  1  0
 30 31  2  0
 31 32  1  0
 32 33  1  0
 32 34  2  0
 27 35  1  0
 35  5  1  0
 25  8  1  0
 34 28  1  0
 23 17  1  0
M  END
>  <zinc_id>  (165) 
ZINC000068153186

>  <smiles>  (165) 
CC(C)(C)c1nc(-c2cccc(NS(=O)(=O)c3c(F)cccc3F)c2F)c(-c2ccnc(N)n2)s1

$$$$

     RDKit          3D

 35 38  0  0  0  0  0  0  0  0999 V2000
   -1.3608   -0.4583   -0.5950 C   0  0  0  0  0  0  0  0  0  0  0  0
   -1.4835   -1.6857   -0.1676 C   0  0  0  0  0  0  0  0  0  0  0  0
   -0.3256   -2.4018   -0.0763 C   0  0  0  0  0  0  0  0  0  0  0  0
    0.9441   -1.7172   -0.3317 C   0  0  0  0  0  0  0  0  0  0  0  0
    1.9542   -2.0220    0.3632 O   0  0  0  0  0  0  0  0  0  0  0  0
    0.8891   -0.4495   -0.9776 N   0  0  0  0  0  0  0  0  0  0  0  0
    1.9202    0.5112   -0.8366 C   0  0  0  0  0  0  0  0  0  0  0  0
    2.6423    1.0090   -1.9153 C   0  0  0  0  0  0  0  0  0  0  0  0
    4.0037    1.2113   -1.7120 C   0  0  0  0  0  0  0  0  0  0  0  0
    4.5522    1.0996   -0.4398 C   0  0  0  0  0  0  0  0  0  0  0  0
    5.8311    0.5014   -0.2021 N   0  0  0  0  0  0  0  0  0  0  0  0
    5.9807    0.0540    1.1908 C   0  0  0  0  0  0  0  0  0  0  0  0
    6.1349    1.6135    1.7260 C   0  0  1  0  0  0  0  0  0  0  0  0
    6.3045    1.1254    3.2905 C   0  0  0  0  0  0  0  0  0  0  0  0
    7.6339    1.5900    1.4534 O   0  0  0  0  0  0  0  0  0  0  0  0
    7.5221    2.2973    0.1047 C   0  0  1  0  0  0  0  0  0  0  0  0
    9.1255    2.0600   -0.2261 C   0  0  0  0  0  0  0  0  0  0  0  0
    7.0894    0.9369   -0.7209 C   0  0  0  0  0  0  0  0  0  0  0  0
    3.6327    1.2985    0.5401 N   0  0  0  0  0  0  0  0  0  0  0  0
    2.3106    1.0499    0.3764 C   0  0  0  0  0  0  0  0  0  0  0  0
   -0.4087   -3.6722    0.4581 C   0  0  0  0  0  0  0  0  0  0  0  0
   -1.6627   -4.2004    0.7472 C   0  0  0  0  0  0  0  0  0  0  0  0
   -2.8305   -3.4809    0.5030 C   0  0  0  0  0  0  0  0  0  0  0  0
   -2.7350   -2.1475    0.1578 C   0  0  0  0  0  0  0  0  0  0  0  0
   -3.8799   -1.3388   -0.2728 C   0  0  0  0  0  0  0  0  0  0  0  0
   -3.6451   -0.1248   -0.9073 C   0  0  0  0  0  0  0  0  0  0  0  0
   -4.6056    0.8611   -0.9725 C   0  0  0  0  0  0  0  0  0  0  0  0
   -5.9330    0.4692   -0.8687 C   0  0  0  0  0  0  0  0  0  0  0  0
   -6.8468    1.5148   -0.8716 O   0  0  0  0  0  0  0  0  0  0  0  0
   -7.6470    1.6742    0.2783 C   0  0  0  0  0  0  0  0  0  0  0  0
   -8.7696    0.8716    0.1393 F   0  0  0  0  0  0  0  0  0  0  0  0
   -7.9884    3.0208    0.3367 F   0  0  0  0  0  0  0  0  0  0  0  0
   -6.9650    1.3455    1.4431 F   0  0  0  0  0  0  0  0  0  0  0  0
   -6.2030   -0.7692   -0.3044 C   0  0  0  0  0  0  0  0  0  0  0  0
   -5.1808   -1.6468    0.0363 C   0  0  0  0  0  0  0  0  0  0  0  0
  1  2  1  0
  2  3  2  0
  3  4  1  0
  4  5  2  0
  4  6  1  0
  6  7  1  0
  7  8  2  0
  8  9  1  0
  9 10  2  0
 10 11  1  0
 11 12  1  0
 12 13  1  0
 13 14  1  1
 13 15  1  0
 15 16  1  0
 16 17  1  6
 16 18  1  0
 10 19  1  0
 19 20  2  0
  3 21  1  0
 21 22  2  0
 22 23  1  0
 23 24  2  0
 24 25  1  0
 25 26  2  0
 26 27  1  0
 27 28  2  0
 28 29  1  0
 29 30  1  0
 30 31  1  0
 30 32  1  0
 30 33  1  0
 28 34  1  0
 34 35  2  0
 24  2  1  0
 35 25  1  0
 20  7  1  0
 18 11  1  0
M  END
>  <zinc_id>  (166) 
ZINC000068202099

>  <smiles>  (166) 
Cc1c(C(=O)Nc2ccc(N3C[C@H](C)O[C@H](C)C3)nc2)cccc1-c1ccc(OC(F)(F)F)cc1

$$$$

     RDKit          3D

 54 59  0  0  0  0  0  0  0  0999 V2000
  -10.0557    3.3272    0.0735 C   0  0  0  0  0  0  0  0  0  0  0  0
   -9.7291    2.2935   -0.4602 O   0  0  0  0  0  0  0  0  0  0  0  0
   -9.8028    1.0230    0.1098 C   0  0  0  0  0  0  0  0  0  0  0  0
  -10.2586    0.9669    1.2850 O   0  0  0  0  0  0  0  0  0  0  0  0
   -9.5307   -0.1536   -0.6599 N   0  0  0  0  0  0  0  0  0  0  0  0
   -9.5184   -1.4509    0.2549 C   0  0  2  0  0  0  0  0  0  0  0  0
   -8.2675   -2.0943   -0.5622 C   0  0  0  0  0  0  0  0  0  0  0  0
   -8.0771   -3.2699   -0.1226 O   0  0  0  0  0  0  0  0  0  0  0  0
   -7.1162   -1.2419   -0.5920 N   0  0  0  0  0  0  0  0  0  0  0  0
   -5.8593   -1.6491   -1.0874 C   0  0  0  0  0  0  0  0  0  0  0  0
   -4.9378   -1.7216    0.0845 C   0  0  0  0  0  0  0  0  0  0  0  0
   -5.7579   -1.4041    1.2828 C   0  0  0  0  0  0  0  0  0  0  0  0
   -6.8235   -0.3009    0.6508 C   0  0  1  0  0  0  0  0  0  0  0  0
   -5.6523    0.5013   -0.1340 C   0  0  0  0  0  0  0  0  0  0  0  0
   -5.8759    1.1948   -1.2335 N   0  0  0  0  0  0  0  0  0  0  0  0
   -4.7286    1.9021   -1.4232 C   0  0  0  0  0  0  0  0  0  0  0  0
   -3.9578    1.8290   -0.2694 C   0  0  0  0  0  0  0  0  0  0  0  0
   -2.4858    1.7157   -0.2033 C   0  0  0  0  0  0  0  0  0  0  0  0
   -1.7365    1.2303   -1.2701 C   0  0  0  0  0  0  0  0  0  0  0  0
   -0.9318    0.1189   -1.0791 C   0  0  0  0  0  0  0  0  0  0  0  0
   -0.6303   -0.3844    0.1834 C   0  0  0  0  0  0  0  0  0  0  0  0
    0.5616   -1.2537    0.2677 C   0  0  0  0  0  0  0  0  0  0  0  0
    1.4631   -1.3490   -0.7933 C   0  0  0  0  0  0  0  0  0  0  0  0
    2.8245   -1.0930   -0.6191 C   0  0  0  0  0  0  0  0  0  0  0  0
    3.2903   -0.6344    0.6122 C   0  0  0  0  0  0  0  0  0  0  0  0
    4.0505    0.6142    0.7554 C   0  0  0  0  0  0  0  0  0  0  0  0
    3.5854    1.9005    1.0054 C   0  0  0  0  0  0  0  0  0  0  0  0
    4.5378    2.7815    0.6105 N   0  0  0  0  0  0  0  0  0  0  0  0
    5.2897    2.1242   -0.3133 C   0  0  0  0  0  0  0  0  0  0  0  0
    6.7786    2.7820   -0.3426 C   0  0  2  0  0  0  0  0  0  0  0  0
    6.6739    3.1737   -1.9517 C   0  0  0  0  0  0  0  0  0  0  0  0
    6.0956    1.8930   -2.4875 C   0  0  0  0  0  0  0  0  0  0  0  0
    7.0433    0.9298   -1.8678 C   0  0  0  0  0  0  0  0  0  0  0  0
    7.5591    1.4347   -0.6587 N   0  0  0  0  0  0  0  0  0  0  0  0
    8.9021    1.3801   -0.2028 C   0  0  0  0  0  0  0  0  0  0  0  0
    9.5854    2.4155    0.0595 O   0  0  0  0  0  0  0  0  0  0  0  0
    9.2263    0.1888    0.8544 C   0  0  1  0  0  0  0  0  0  0  0  0
    8.8163   -0.9349   -0.1891 N   0  0  0  0  0  0  0  0  0  0  0  0
    8.6499   -2.2031    0.4556 C   0  0  0  0  0  0  0  0  0  0  0  0
    7.9340   -2.2639    1.4877 O   0  0  0  0  0  0  0  0  0  0  0  0
    9.0484   -3.3935   -0.1110 O   0  0  0  0  0  0  0  0  0  0  0  0
    8.9892   -4.6436    0.5622 C   0  0  0  0  0  0  0  0  0  0  0  0
   10.8214    0.1434    0.4048 C   0  0  0  0  0  0  0  0  0  0  0  0
   11.3585   -1.0940    1.0568 C   0  0  0  0  0  0  0  0  0  0  0  0
   10.8324    0.1022   -1.0927 C   0  0  0  0  0  0  0  0  0  0  0  0
    5.0324    0.8535   -0.1500 N   0  0  0  0  0  0  0  0  0  0  0  0
    2.5625   -1.2007    1.6537 C   0  0  0  0  0  0  0  0  0  0  0  0
    1.2048   -1.4947    1.4828 C   0  0  0  0  0  0  0  0  0  0  0  0
   -0.9390    0.5007    1.2158 C   0  0  0  0  0  0  0  0  0  0  0  0
   -1.8669    1.5217    1.0276 C   0  0  0  0  0  0  0  0  0  0  0  0
   -4.8649    1.3223    0.6081 N   0  0  0  0  0  0  0  0  0  0  0  0
  -10.6169   -2.2092   -0.7252 C   0  0  0  0  0  0  0  0  0  0  0  0
  -11.7920   -1.2717   -0.7291 C   0  0  0  0  0  0  0  0  0  0  0  0
  -10.9040   -3.4543    0.1051 C   0  0  0  0  0  0  0  0  0  0  0  0
  1  2  1  0
  2  3  1  0
  3  4  2  0
  3  5  1  0
  6  5  1  6
  6  7  1  0
  7  8  2  0
  7  9  1  0
  9 10  1  0
 10 11  1  0
 11 12  1  0
 12 13  1  0
 13 14  1  6
 14 15  2  0
 15 16  1  0
 16 17  2  0
 17 18  1  0
 18 19  2  0
 19 20  1  0
 20 21  2  0
 21 22  1  0
 22 23  2  0
 23 24  1  0
 24 25  2  0
 25 26  1  0
 26 27  2  0
 27 28  1  0
 28 29  2  0
 30 29  1  6
 30 31  1  0
 31 32  1  0
 32 33  1  0
 33 34  1  0
 34 35  1  0
 35 36  2  0
 37 35  1  6
 37 38  1  0
 38 39  1  0
 39 40  2  0
 39 41  1  0
 41 42  1  0
 37 43  1  0
 43 44  1  0
 43 45  1  0
 29 46  1  0
 25 47  1  0
 47 48  2  0
 21 49  1  0
 49 50  2  0
 17 51  1  0
  6 52  1  0
 52 53  1  0
 52 54  1  0
 13  9  1  0
 51 14  1  0
 50 18  1  0
 48 22  1  0
 46 26  1  0
 34 30  1  0
M  END
>  <zinc_id>  (167) 
ZINC000068204830

>  <smiles>  (167) 
COC(=O)N[C@H](C(=O)N1CCC[C@H]1c1ncc(-c2ccc(-c3ccc(-c4cnc([C@@H]5CCCN5C(=O)[C@@H](NC(=O)OC)C(C)C)[nH]4)cc3)cc2)[nH]1)C(C)C

$$$$

     RDKit          3D

 35 37  0  0  0  0  0  0  0  0999 V2000
   -7.7842    4.1235    0.3686 C   0  0  0  0  0  0  0  0  0  0  0  0
   -7.6774    2.6830    0.6705 C   0  0  0  0  0  0  0  0  0  0  0  0
   -7.1640    1.6148    0.5354 C   0  0  0  0  0  0  0  0  0  0  0  0
   -6.5067    0.5041   -0.1213 C   0  0  0  0  0  0  0  0  0  0  0  0
   -7.1376   -0.8669    0.4551 C   0  0  1  0  0  0  0  0  0  0  0  0
   -7.5190   -1.3621   -1.0504 C   0  0  0  0  0  0  0  0  0  0  0  0
   -5.6270   -1.7192    0.5689 C   0  0  1  0  0  0  0  0  0  0  0  0
   -6.1511   -3.0100   -0.0392 O   0  0  0  0  0  0  0  0  0  0  0  0
   -5.0705   -1.2409   -0.8655 C   0  0  0  0  0  0  0  0  0  0  0  0
   -4.0208   -0.6898   -1.1871 C   0  0  0  0  0  0  0  0  0  0  0  0
   -2.7257   -0.4498   -0.3877 C   0  0  1  0  0  0  0  0  0  0  0  0
   -1.8201    0.3308   -1.6182 C   0  0  2  0  0  0  0  0  0  0  0  0
   -0.4166    0.4444   -0.7672 C   0  0  0  0  0  0  0  0  0  0  0  0
   -0.9587   -0.2972    0.3343 C   0  0  0  0  0  0  0  0  0  0  0  0
   -0.6917   -1.5791    0.6236 C   0  0  0  0  0  0  0  0  0  0  0  0
    0.5587   -2.1072   -0.0133 C   0  0  0  0  0  0  0  0  0  0  0  0
    1.4408   -0.8736   -0.0863 C   0  0  0  0  0  0  0  0  0  0  0  0
    2.3628   -0.6813    1.0406 C   0  0  0  0  0  0  0  0  0  0  0  0
    3.7250   -0.4858    0.4364 C   0  0  0  0  0  0  0  0  0  0  0  0
    3.7189    0.1714   -0.6505 O   0  0  0  0  0  0  0  0  0  0  0  0
    4.6192   -1.5675    0.5089 O   0  0  0  0  0  0  0  0  0  0  0  0
    5.4951   -1.7237   -0.5331 C   0  0  0  0  0  0  0  0  0  0  0  0
    6.8407   -1.1993   -0.4614 C   0  0  0  0  0  0  0  0  0  0  0  0
    7.6149   -1.9669   -1.1228 O   0  0  0  0  0  0  0  0  0  0  0  0
    7.2329    0.1830   -0.2099 C   0  0  0  0  0  0  0  0  0  0  0  0
    6.9154    0.6974    1.0405 C   0  0  0  0  0  0  0  0  0  0  0  0
    7.6195    1.7473    1.5871 C   0  0  0  0  0  0  0  0  0  0  0  0
    8.7486    2.1767    0.9324 C   0  0  0  0  0  0  0  0  0  0  0  0
    8.8854    1.8453   -0.3977 C   0  0  0  0  0  0  0  0  0  0  0  0
    8.4211    0.6156   -0.7774 C   0  0  0  0  0  0  0  0  0  0  0  0
   -2.3238    0.0188    0.3866 C   0  0  0  0  0  0  0  0  0  0  0  0
   -2.6787    1.3490   -0.6346 C   0  0  1  0  0  0  0  0  0  0  0  0
   -1.6014    1.7342    0.4319 C   0  0  0  0  0  0  0  0  0  0  0  0
   -3.1601    1.0417    0.4507 C   0  0  2  0  0  0  0  0  0  0  0  0
   -3.1635    0.5393    1.8731 O   0  0  0  0  0  0  0  0  0  0  0  0
  1  2  1  0
  2  3  3  0
  3  4  1  0
  5  4  1  6
  5  6  1  0
  5  7  1  0
  7  8  1  6
  7  9  1  0
  9 10  2  0
 11 10  1  6
 11 12  1  0
 12 13  1  1
 13 14  1  0
 14 15  2  0
 15 16  1  0
 16 17  1  0
 17 18  1  0
 18 19  1  0
 19 20  2  0
 19 21  1  0
 21 22  1  0
 22 23  1  0
 23 24  2  0
 23 25  1  0
 25 26  2  0
 26 27  1  0
 27 28  2  0
 28 29  1  0
 29 30  2  0
 14 31  1  0
 32 31  1  1
 32 33  1  0
 33 34  1  0
 34 35  1  1
 34 11  1  0
 32 12  1  0
 30 25  1  0
M  END
>  <zinc_id>  (168) 
ZINC000100052681

>  <smiles>  (168) 
CC#CC[C@@H](C)[C@@H](O)/C=C/[C@@H]1[C@@H](O)C[C@@H]2C/C(=C/CCCC(=O)OCC(=O)c3ccccc3)C[C@H]21

$$$$

     RDKit          3D

 37 40  0  0  0  0  0  0  0  0999 V2000
    8.5352    0.2345   -1.6589 C   0  0  0  0  0  0  0  0  0  0  0  0
    7.7002    0.5091   -0.4815 C   0  0  0  0  0  0  0  0  0  0  0  0
    7.9842    1.9324   -0.0426 C   0  0  0  0  0  0  0  0  0  0  0  0
    8.0246   -0.3669    0.6653 C   0  0  0  0  0  0  0  0  0  0  0  0
    9.0541   -0.0926    1.3351 O   0  0  0  0  0  0  0  0  0  0  0  0
    7.0835   -1.2141    1.2318 O   0  0  0  0  0  0  0  0  0  0  0  0
    6.2361    0.4124   -0.7752 C   0  0  0  0  0  0  0  0  0  0  0  0
    5.3432    1.3981   -0.3675 C   0  0  0  0  0  0  0  0  0  0  0  0
    4.1348    1.0462    0.2280 C   0  0  0  0  0  0  0  0  0  0  0  0
    3.6924   -0.2196   -0.0818 C   0  0  0  0  0  0  0  0  0  0  0  0
    2.3865   -0.7027    0.7838 C   0  0  2  0  0  0  0  0  0  0  0  0
    3.1122   -1.9360    1.3687 O   0  0  0  0  0  0  0  0  0  0  0  0
    1.7925   -1.5902   -0.5116 C   0  0  0  0  0  0  0  0  0  0  0  0
    1.4655   -0.4551   -1.4788 C   0  0  0  0  0  0  0  0  0  0  0  0
    1.0034    0.7750   -0.7002 C   0  0  0  0  0  0  0  0  0  0  0  0
   -0.2256    0.3739   -0.0367 N   0  0  0  0  0  0  0  0  0  0  0  0
   -1.1757    0.2001   -1.1335 C   0  0  0  0  0  0  0  0  0  0  0  0
   -2.4233    0.9378   -0.7358 C   0  0  0  0  0  0  0  0  0  0  0  0
   -2.8196    0.3308    0.6069 C   0  0  0  0  0  0  0  0  0  0  0  0
   -4.2750    0.5483    0.8752 C   0  0  0  0  0  0  0  0  0  0  0  0
   -4.5363    1.6164    1.7119 O   0  0  0  0  0  0  0  0  0  0  0  0
   -4.9467   -0.6750    1.4195 C   0  0  0  0  0  0  0  0  0  0  0  0
   -4.8646   -1.8854    0.7433 C   0  0  0  0  0  0  0  0  0  0  0  0
   -5.8871   -2.8248    0.8131 C   0  0  0  0  0  0  0  0  0  0  0  0
   -7.1586   -2.4008    1.1824 C   0  0  0  0  0  0  0  0  0  0  0  0
   -7.1770   -1.3559    2.0990 C   0  0  0  0  0  0  0  0  0  0  0  0
   -6.0837   -0.5241    2.2034 C   0  0  0  0  0  0  0  0  0  0  0  0
   -4.9193    0.7856   -0.4564 C   0  0  0  0  0  0  0  0  0  0  0  0
   -4.7968   -0.2126   -1.4165 C   0  0  0  0  0  0  0  0  0  0  0  0
   -5.2192    0.0694   -2.7100 C   0  0  0  0  0  0  0  0  0  0  0  0
   -6.3037    0.9330   -2.7848 C   0  0  0  0  0  0  0  0  0  0  0  0
   -6.5041    1.8772   -1.8074 C   0  0  0  0  0  0  0  0  0  0  0  0
   -5.7337    1.8758   -0.6574 C   0  0  0  0  0  0  0  0  0  0  0  0
   -1.9039    0.9664    1.6176 C   0  0  0  0  0  0  0  0  0  0  0  0
   -0.6350    1.3982    0.8927 C   0  0  0  0  0  0  0  0  0  0  0  0
    4.3964   -1.1662   -0.7328 C   0  0  0  0  0  0  0  0  0  0  0  0
    5.6442   -0.7672   -1.2084 C   0  0  0  0  0  0  0  0  0  0  0  0
  1  2  1  0
  2  3  1  0
  2  4  1  0
  4  5  2  0
  4  6  1  0
  2  7  1  0
  7  8  2  0
  8  9  1  0
  9 10  2  0
 11 10  1  6
 11 12  1  0
 11 13  1  0
 13 14  1  0
 14 15  1  0
 15 16  1  0
 16 17  1  0
 17 18  1  0
 18 19  1  0
 19 20  1  0
 20 21  1  0
 20 22  1  0
 22 23  2  0
 23 24  1  0
 24 25  2  0
 25 26  1  0
 26 27  2  0
 20 28  1  0
 28 29  2  0
 29 30  1  0
 30 31  2  0
 31 32  1  0
 32 33  2  0
 19 34  1  0
 34 35  1  0
 10 36  1  0
 36 37  2  0
 37  7  1  0
 35 16  1  0
 27 22  1  0
 33 28  1  0
M  END
>  <zinc_id>  (169) 
ZINC000003872566

>  <smiles>  (169) 
CC(C)(C(=O)O)c1ccc([C@H](O)CCCN2CCC(C(O)(c3ccccc3)c3ccccc3)CC2)cc1

$$$$

     RDKit          3D

 36 40  0  0  0  0  0  0  0  0999 V2000
    9.5415   -0.4639   -0.6189 C   0  0  0  0  0  0  0  0  0  0  0  0
    8.2334    0.0429   -0.4401 C   0  0  0  0  0  0  0  0  0  0  0  0
    7.4600    0.1530   -1.4368 O   0  0  0  0  0  0  0  0  0  0  0  0
    7.7416    0.1363    0.9021 N   0  0  0  0  0  0  0  0  0  0  0  0
    7.0894   -1.0672    1.4111 C   0  0  0  0  0  0  0  0  0  0  0  0
    5.5917   -0.9433    1.2784 C   0  0  0  0  0  0  0  0  0  0  0  0
    5.2847    0.4093    0.8167 N   0  0  0  0  0  0  0  0  0  0  0  0
    4.0712    0.6848    0.1013 C   0  0  0  0  0  0  0  0  0  0  0  0
    2.9665    1.2461    0.7359 C   0  0  0  0  0  0  0  0  0  0  0  0
    1.6895    0.7192    0.5779 C   0  0  0  0  0  0  0  0  0  0  0  0
    1.5228   -0.3724   -0.2658 C   0  0  0  0  0  0  0  0  0  0  0  0
    0.6656   -1.4294    0.0590 O   0  0  0  0  0  0  0  0  0  0  0  0
   -0.4072   -1.5861   -0.8321 C   0  0  0  0  0  0  0  0  0  0  0  0
   -1.1122   -0.0972   -0.9306 C   0  0  1  0  0  0  0  0  0  0  0  0
   -2.2035   -0.6607   -2.0273 C   0  0  0  0  0  0  0  0  0  0  0  0
   -3.0978   -1.3333   -1.1795 O   0  0  0  0  0  0  0  0  0  0  0  0
   -3.2485   -0.2659   -0.2774 C   0  0  1  0  0  0  0  0  0  0  0  0
   -3.4925    0.9360   -1.1397 C   0  0  0  0  0  0  0  0  0  0  0  0
   -4.5091    0.7472   -2.1373 N   0  0  0  0  0  0  0  0  0  0  0  0
   -4.5730    1.5187   -3.2512 C   0  0  0  0  0  0  0  0  0  0  0  0
   -5.3559    0.8593   -4.1910 C   0  0  0  0  0  0  0  0  0  0  0  0
   -6.0659   -0.0495   -3.5010 N   0  0  0  0  0  0  0  0  0  0  0  0
   -5.4087   -0.2183   -2.3533 C   0  0  0  0  0  0  0  0  0  0  0  0
   -4.2861   -0.4208    0.7062 C   0  0  0  0  0  0  0  0  0  0  0  0
   -5.2804    0.5497    0.7995 C   0  0  0  0  0  0  0  0  0  0  0  0
   -6.2083    0.5625    1.8130 C   0  0  0  0  0  0  0  0  0  0  0  0
   -5.7457    0.1399    3.0535 C   0  0  0  0  0  0  0  0  0  0  0  0
   -6.5678    0.7068    4.4812 Cl  0  0  0  0  0  0  0  0  0  0  0  0
   -4.8024   -0.8513    3.0434 C   0  0  0  0  0  0  0  0  0  0  0  0
   -4.0469   -1.0789    1.9065 C   0  0  0  0  0  0  0  0  0  0  0  0
   -2.8287   -2.3021    1.9963 Cl  0  0  0  0  0  0  0  0  0  0  0  0
   -1.9984   -0.3552    0.2715 O   0  0  0  0  0  0  0  0  0  0  0  0
    2.4477   -0.4594   -1.2993 C   0  0  0  0  0  0  0  0  0  0  0  0
    3.7423   -0.0090   -1.0600 C   0  0  0  0  0  0  0  0  0  0  0  0
    5.8490    1.4700    1.6479 C   0  0  0  0  0  0  0  0  0  0  0  0
    7.3421    1.4709    1.3401 C   0  0  0  0  0  0  0  0  0  0  0  0
  1  2  1  0
  2  3  2  0
  2  4  1  0
  4  5  1  0
  5  6  1  0
  6  7  1  0
  7  8  1  0
  8  9  2  0
  9 10  1  0
 10 11  2  0
 11 12  1  0
 12 13  1  0
 14 13  1  1
 14 15  1  0
 15 16  1  0
 16 17  1  0
 17 18  1  6
 18 19  1  0
 19 20  1  0
 20 21  2  0
 21 22  1  0
 22 23  2  0
 17 24  1  0
 24 25  2  0
 25 26  1  0
 26 27  2  0
 27 28  1  0
 27 29  1  0
 29 30  2  0
 30 31  1  0
 17 32  1  0
 11 33  1  0
 33 34  2  0
  7 35  1  0
 35 36  1  0
 36  4  1  0
 34  8  1  0
 32 14  1  0
 23 19  1  0
 30 24  1  0
M  END
>  <zinc_id>  (170) 
ZINC000003872994

>  <smiles>  (170) 
CC(=O)N1CCN(c2ccc(OC[C@H]3CO[C@@](Cn4ccnc4)(c4ccc(Cl)cc4Cl)O3)cc2)CC1

$$$$

     RDKit          3D

 14 14  0  0  0  0  0  0  0  0999 V2000
    0.5246    0.0265    2.1099 N   0  0  0  0  0  0  0  0  0  0  0  0
    1.1353   -0.9835    1.7454 C   0  0  0  0  0  0  0  0  0  0  0  0
    1.2232   -0.9844    0.1033 C   0  0  2  0  0  0  0  0  0  0  0  0
    1.4387    0.6457    0.0525 C   0  0  0  0  0  0  0  0  0  0  0  0
    2.6966    0.8658   -0.6761 C   0  0  0  0  0  0  0  0  0  0  0  0
    2.9104    2.0273   -1.0777 O   0  0  0  0  0  0  0  0  0  0  0  0
    3.7625   -0.0127   -0.6728 O   0  0  0  0  0  0  0  0  0  0  0  0
   -0.3560   -0.8480   -0.1257 C   0  0  0  0  0  0  0  0  0  0  0  0
   -0.7552   -0.3108   -1.3306 C   0  0  0  0  0  0  0  0  0  0  0  0
   -2.0812    0.1072   -1.4145 C   0  0  0  0  0  0  0  0  0  0  0  0
   -2.8507    0.1391   -0.2555 C   0  0  0  0  0  0  0  0  0  0  0  0
   -3.8489    1.5365    0.1456 Cl  0  0  0  0  0  0  0  0  0  0  0  0
   -2.5497   -0.8515    0.6725 C   0  0  0  0  0  0  0  0  0  0  0  0
   -1.2495   -1.3572    0.7236 C   0  0  0  0  0  0  0  0  0  0  0  0
  1  2  1  0
  3  2  1  1
  3  4  1  0
  4  5  1  0
  5  6  2  0
  5  7  1  0
  3  8  1  0
  8  9  2  0
  9 10  1  0
 10 11  2  0
 11 12  1  0
 11 13  1  0
 13 14  2  0
 14  8  1  0
M  END
>  <zinc_id>  (171) 
ZINC000000000061

>  <smiles>  (171) 
NC[C@H](CC(=O)O)c1ccc(Cl)cc1

$$$$

     RDKit          3D

 14 14  0  0  0  0  0  0  0  0999 V2000
   -1.5789   -0.2541   -1.6165 N   0  0  0  0  0  0  0  0  0  0  0  0
   -1.5562   -0.1466   -1.3323 C   0  0  0  0  0  0  0  0  0  0  0  0
   -0.8223    0.9893   -0.3645 C   0  0  1  0  0  0  0  0  0  0  0  0
   -1.5535    0.3890    1.0020 C   0  0  0  0  0  0  0  0  0  0  0  0
   -2.9784    0.2616    0.6559 C   0  0  0  0  0  0  0  0  0  0  0  0
   -3.8269    1.1727    0.7078 O   0  0  0  0  0  0  0  0  0  0  0  0
   -3.4955   -1.0379    0.6096 O   0  0  0  0  0  0  0  0  0  0  0  0
    0.4739    0.0219   -0.1463 C   0  0  0  0  0  0  0  0  0  0  0  0
    1.1821   -0.1846   -1.3050 C   0  0  0  0  0  0  0  0  0  0  0  0
    2.5198   -0.5203   -1.1747 C   0  0  0  0  0  0  0  0  0  0  0  0
    3.1744   -0.4576    0.0462 C   0  0  0  0  0  0  0  0  0  0  0  0
    4.9088   -0.3788    0.1023 Cl  0  0  0  0  0  0  0  0  0  0  0  0
    2.4386   -0.0881    1.1498 C   0  0  0  0  0  0  0  0  0  0  0  0
    1.1141    0.2335    1.0450 C   0  0  0  0  0  0  0  0  0  0  0  0
  1  2  1  0
  3  2  1  6
  3  4  1  0
  4  5  1  0
  5  6  2  0
  5  7  1  0
  3  8  1  0
  8  9  2  0
  9 10  1  0
 10 11  2  0
 11 12  1  0
 11 13  1  0
 13 14  2  0
 14  8  1  0
M  END
>  <zinc_id>  (172) 
ZINC000000085733

>  <smiles>  (172) 
NC[C@@H](CC(=O)O)c1ccc(Cl)cc1

$$$$

     RDKit          3D

 35 37  0  0  0  0  0  0  0  0999 V2000
    0.0248   -2.0863   -3.5285 C   0  0  0  0  0  0  0  0  0  0  0  0
    0.3916   -1.4148   -3.2406 C   0  0  0  0  0  0  0  0  0  0  0  0
    1.0547   -0.1361   -2.9052 C   0  0  0  0  0  0  0  0  0  0  0  0
    1.4393   -0.2712   -1.3150 C   0  0  1  0  0  0  0  0  0  0  0  0
    2.1334    1.2160   -1.2747 C   0  0  0  0  0  0  0  0  0  0  0  0
    3.3857    0.8554   -0.5322 C   0  0  0  0  0  0  0  0  0  0  0  0
    3.2510    0.2300    0.7019 C   0  0  0  0  0  0  0  0  0  0  0  0
    4.3031   -0.3260    1.3503 N   0  0  0  0  0  0  0  0  0  0  0  0
    5.4307   -0.5319    0.6378 C   0  0  0  0  0  0  0  0  0  0  0  0
    6.6436   -0.6446    1.2317 N   0  0  0  0  0  0  0  0  0  0  0  0
    7.7918   -0.4432    0.5692 C   0  0  0  0  0  0  0  0  0  0  0  0
    8.9810    0.0328    1.2102 N   0  0  0  0  0  0  0  0  0  0  0  0
    7.8039   -0.5091   -0.7696 N   0  0  0  0  0  0  0  0  0  0  0  0
    6.6199   -0.4112   -1.4219 C   0  0  0  0  0  0  0  0  0  0  0  0
    6.5762   -0.4877   -2.8520 N   0  0  0  0  0  0  0  0  0  0  0  0
    5.4173   -0.3078   -0.7335 C   0  0  0  0  0  0  0  0  0  0  0  0
    4.3924    0.3728   -1.3020 N   0  0  0  0  0  0  0  0  0  0  0  0
   -0.0268    0.2029   -0.8514 C   0  0  0  0  0  0  0  0  0  0  0  0
   -0.2253    1.4203   -0.3010 C   0  0  0  0  0  0  0  0  0  0  0  0
   -1.2955    1.6029    0.5762 C   0  0  0  0  0  0  0  0  0  0  0  0
   -1.7140    0.5464    1.3534 C   0  0  0  0  0  0  0  0  0  0  0  0
   -2.9828    0.5124    2.0929 C   0  0  0  0  0  0  0  0  0  0  0  0
   -2.9282   -0.1974    3.1462 O   0  0  0  0  0  0  0  0  0  0  0  0
   -4.2812    0.5493    1.5417 N   0  0  0  0  0  0  0  0  0  0  0  0
   -4.9462   -0.8592    1.2417 C   0  0  1  0  0  0  0  0  0  0  0  0
   -6.2772   -0.5264    2.1513 C   0  0  0  0  0  0  0  0  0  0  0  0
   -6.9691    0.6440    1.5935 C   0  0  0  0  0  0  0  0  0  0  0  0
   -8.2493    0.1730    0.9758 C   0  0  0  0  0  0  0  0  0  0  0  0
   -9.1243   -0.4470    1.6513 O   0  0  0  0  0  0  0  0  0  0  0  0
   -8.6931    0.7309   -0.2238 O   0  0  0  0  0  0  0  0  0  0  0  0
   -5.6123   -0.3683   -0.1542 C   0  0  0  0  0  0  0  0  0  0  0  0
   -4.8442    0.3423   -0.8763 O   0  0  0  0  0  0  0  0  0  0  0  0
   -5.9560   -1.5477   -0.8386 O   0  0  0  0  0  0  0  0  0  0  0  0
   -0.9699   -0.6242    1.2025 C   0  0  0  0  0  0  0  0  0  0  0  0
   -0.5453   -0.8610   -0.1070 C   0  0  0  0  0  0  0  0  0  0  0  0
  1  2  3  0
  2  3  1  0
  4  3  1  6
  4  5  1  0
  5  6  1  0
  6  7  2  0
  7  8  1  0
  8  9  2  0
  9 10  1  0
 10 11  2  0
 11 12  1  0
 11 13  1  0
 13 14  2  0
 14 15  1  0
 14 16  1  0
 16 17  2  0
  4 18  1  0
 18 19  2  0
 19 20  1  0
 20 21  2  0
 21 22  1  0
 22 23  2  0
 22 24  1  0
 25 24  1  1
 25 26  1  0
 26 27  1  0
 27 28  1  0
 28 29  2  0
 28 30  1  0
 25 31  1  0
 31 32  2  0
 31 33  1  0
 21 34  1  0
 34 35  2  0
 17  6  1  0
 35 18  1  0
 16  9  1  0
M  END
>  <zinc_id>  (173) 
ZINC000001536109

>  <smiles>  (173) 
C#CC[C@@H](Cc1cnc2nc(N)nc(N)c2n1)c1ccc(C(=O)N[C@@H](CCC(=O)O)C(=O)O)cc1

$$$$

     RDKit          3D

 29 31  0  0  0  0  0  0  0  0999 V2000
    7.7892    0.2937    1.0132 C   0  0  0  0  0  0  0  0  0  0  0  0
    6.6710   -0.1741    0.9790 C   0  0  0  0  0  0  0  0  0  0  0  0
    5.3230   -0.6153    0.7130 C   0  0  0  0  0  0  0  0  0  0  0  0
    5.1359   -1.8185    0.0668 C   0  0  0  0  0  0  0  0  0  0  0  0
    3.8606   -2.1328   -0.3656 C   0  0  0  0  0  0  0  0  0  0  0  0
    2.8439   -1.1917   -0.2663 C   0  0  0  0  0  0  0  0  0  0  0  0
    2.9676   -0.0888    0.5725 C   0  0  0  0  0  0  0  0  0  0  0  0
    2.0435    1.0060    0.5175 N   0  0  0  0  0  0  0  0  0  0  0  0
    1.1390    1.0077   -0.5948 C   0  0  0  0  0  0  0  0  0  0  0  0
    1.6083    0.8792   -1.8607 N   0  0  0  0  0  0  0  0  0  0  0  0
    0.8817    0.3250   -2.8523 C   0  0  0  0  0  0  0  0  0  0  0  0
   -0.2257   -0.3748   -2.5174 N   0  0  0  0  0  0  0  0  0  0  0  0
   -0.7384   -0.3709   -1.2880 C   0  0  0  0  0  0  0  0  0  0  0  0
   -1.9514   -0.9572   -0.9514 C   0  0  0  0  0  0  0  0  0  0  0  0
   -2.5546   -0.5647    0.2369 C   0  0  0  0  0  0  0  0  0  0  0  0
   -3.6439   -1.2390    0.7841 O   0  0  0  0  0  0  0  0  0  0  0  0
   -4.1316   -2.4614    0.2913 C   0  0  0  0  0  0  0  0  0  0  0  0
   -4.1665   -2.5313   -1.2127 C   0  0  0  0  0  0  0  0  0  0  0  0
   -4.5547   -3.8386   -1.5404 O   0  0  0  0  0  0  0  0  0  0  0  0
   -3.9849   -4.7829   -0.6982 C   0  0  0  0  0  0  0  0  0  0  0  0
   -2.0979    0.5236    0.9717 C   0  0  0  0  0  0  0  0  0  0  0  0
   -3.0270    1.4036    1.5391 O   0  0  0  0  0  0  0  0  0  0  0  0
   -3.5949    2.3964    0.6870 C   0  0  0  0  0  0  0  0  0  0  0  0
   -2.5801    3.5164    0.4882 C   0  0  0  0  0  0  0  0  0  0  0  0
   -3.2584    4.7194    0.5908 O   0  0  0  0  0  0  0  0  0  0  0  0
   -3.0690    5.5253   -0.5161 C   0  0  0  0  0  0  0  0  0  0  0  0
   -0.7943    0.9499    0.7423 C   0  0  0  0  0  0  0  0  0  0  0  0
   -0.1118    0.4519   -0.3587 C   0  0  0  0  0  0  0  0  0  0  0  0
    4.2215    0.1440    1.0762 C   0  0  0  0  0  0  0  0  0  0  0  0
  1  2  3  0
  2  3  1  0
  3  4  2  0
  4  5  1  0
  5  6  2  0
  6  7  1  0
  7  8  1  0
  8  9  1  0
  9 10  2  0
 10 11  1  0
 11 12  2  0
 12 13  1  0
 13 14  2  0
 14 15  1  0
 15 16  1  0
 16 17  1  0
 17 18  1  0
 18 19  1  0
 19 20  1  0
 15 21  2  0
 21 22  1  0
 22 23  1  0
 23 24  1  0
 24 25  1  0
 25 26  1  0
 21 27  1  0
 27 28  2  0
  7 29  2  0
 29  3  1  0
 28  9  1  0
 28 13  1  0
M  END
>  <zinc_id>  (174) 
ZINC000001546066

>  <smiles>  (174) 
C#Cc1cccc(Nc2ncnc3cc(OCCOC)c(OCCOC)cc23)c1

$$$$

     RDKit          3D

 19 20  0  0  0  0  0  0  0  0999 V2000
   -0.8598    3.8946   -0.8075 C   0  0  0  0  0  0  0  0  0  0  0  0
   -0.9960    3.2216   -0.6547 O   0  0  0  0  0  0  0  0  0  0  0  0
   -1.2364    1.9032   -0.3072 C   0  0  0  0  0  0  0  0  0  0  0  0
   -2.4789    1.3230   -0.4127 C   0  0  0  0  0  0  0  0  0  0  0  0
   -2.5853   -0.0397   -0.3339 C   0  0  0  0  0  0  0  0  0  0  0  0
   -3.7828   -0.6174   -0.6855 C   0  0  0  0  0  0  0  0  0  0  0  0
   -4.0472   -1.9029   -0.2395 C   0  0  0  0  0  0  0  0  0  0  0  0
   -3.0295   -2.5399    0.4375 C   0  0  0  0  0  0  0  0  0  0  0  0
   -1.7725   -2.0615    0.5088 N   0  0  0  0  0  0  0  0  0  0  0  0
   -1.5321   -0.8264    0.0625 C   0  0  0  0  0  0  0  0  0  0  0  0
   -0.3120   -0.2189    0.2998 C   0  0  0  0  0  0  0  0  0  0  0  0
    0.7503   -1.0844    0.6568 N   0  0  0  0  0  0  0  0  0  0  0  0
    2.1125   -0.2570    0.7730 C   0  0  2  0  0  0  0  0  0  0  0  0
    2.1816   -0.0567   -0.8834 C   0  0  0  0  0  0  0  0  0  0  0  0
    3.0264   -1.6506    0.6852 C   0  0  0  0  0  0  0  0  0  0  0  0
    4.2798   -1.1118    0.0013 C   0  0  0  0  0  0  0  0  0  0  0  0
    4.5929    0.2784    0.5235 C   0  0  0  0  0  0  0  0  0  0  0  0
    5.9508    0.5972    0.1121 N   0  0  0  0  0  0  0  0  0  0  0  0
   -0.2617    1.1492    0.3332 C   0  0  0  0  0  0  0  0  0  0  0  0
  1  2  1  0
  2  3  1  0
  3  4  2  0
  4  5  1  0
  5  6  2  0
  6  7  1  0
  7  8  2  0
  8  9  1  0
  9 10  2  0
 10 11  1  0
 11 12  1  0
 13 12  1  6
 13 14  1  0
 13 15  1  0
 15 16  1  0
 16 17  1  0
 17 18  1  0
 11 19  2  0
 19  3  1  0
 10  5  1  0
M  END
>  <zinc_id>  (175) 
ZINC000001530863

>  <smiles>  (175) 
COc1cc(N[C@H](C)CCCN)c2ncccc2c1

$$$$

     RDKit          3D

 14 14  0  0  0  0  0  0  0  0999 V2000
    3.0413    2.4509    0.3122 C   0  0  0  0  0  0  0  0  0  0  0  0
    2.8870    1.3985    0.3967 C   0  0  0  0  0  0  0  0  0  0  0  0
    2.6795   -0.0544    0.5566 C   0  0  0  0  0  0  0  0  0  0  0  0
    1.5384   -0.4411   -0.2025 N   0  0  0  0  0  0  0  0  0  0  0  0
    1.7731   -1.2273   -1.3572 C   0  0  0  0  0  0  0  0  0  0  0  0
    0.6332   -1.3216    0.7783 C   0  0  2  0  0  0  0  0  0  0  0  0
    1.4689   -2.7270    0.4297 C   0  0  0  0  0  0  0  0  0  0  0  0
   -0.4761   -1.6156   -0.4379 C   0  0  0  0  0  0  0  0  0  0  0  0
   -1.4151   -0.4859   -0.1509 C   0  0  0  0  0  0  0  0  0  0  0  0
   -0.9400    0.8195   -0.1275 C   0  0  0  0  0  0  0  0  0  0  0  0
   -1.7262    1.8351    0.4042 C   0  0  0  0  0  0  0  0  0  0  0  0
   -3.1041    1.6679    0.3638 C   0  0  0  0  0  0  0  0  0  0  0  0
   -3.6038    0.3797    0.3921 C   0  0  0  0  0  0  0  0  0  0  0  0
   -2.7559   -0.6787    0.1023 C   0  0  0  0  0  0  0  0  0  0  0  0
  1  2  3  0
  2  3  1  0
  3  4  1  0
  4  5  1  0
  6  4  1  6
  6  7  1  0
  6  8  1  0
  8  9  1  0
  9 10  2  0
 10 11  1  0
 11 12  2  0
 12 13  1  0
 13 14  2  0
 14  9  1  0
M  END
>  <zinc_id>  (176) 
ZINC000019632633

>  <smiles>  (176) 
C#CCN(C)[C@H](C)Cc1ccccc1

$$$$

     RDKit          3D

 35 37  0  0  0  0  0  0  0  0999 V2000
   -9.4121   -0.8025    2.4532 C   0  0  0  0  0  0  0  0  0  0  0  0
   -8.8114   -0.4269    1.3706 C   0  0  0  0  0  0  0  0  0  0  0  0
   -8.3701    0.1556    0.4063 C   0  0  0  0  0  0  0  0  0  0  0  0
   -8.0280    1.2138   -0.5093 C   0  0  0  0  0  0  0  0  0  0  0  0
   -7.1464    0.5301   -1.6780 C   0  0  1  0  0  0  0  0  0  0  0  0
   -7.0629    1.9621   -2.4501 C   0  0  0  0  0  0  0  0  0  0  0  0
   -5.7301    0.7126   -0.6961 C   0  0  2  0  0  0  0  0  0  0  0  0
   -4.9495    1.5499   -1.7183 O   0  0  0  0  0  0  0  0  0  0  0  0
   -5.1180   -0.6686   -1.2962 C   0  0  0  0  0  0  0  0  0  0  0  0
   -3.9353   -0.9515   -1.3641 C   0  0  0  0  0  0  0  0  0  0  0  0
   -2.8935   -1.0353   -0.1500 C   0  0  1  0  0  0  0  0  0  0  0  0
   -2.1082   -2.3832   -0.7900 C   0  0  2  0  0  0  0  0  0  0  0  0
   -0.8371   -1.7509    0.0199 C   0  0  0  0  0  0  0  0  0  0  0  0
   -0.5719   -0.7592   -1.0908 C   0  0  0  0  0  0  0  0  0  0  0  0
    0.6346   -0.4562   -1.4836 C   0  0  0  0  0  0  0  0  0  0  0  0
    1.6196    0.1012   -0.5980 C   0  0  0  0  0  0  0  0  0  0  0  0
    2.1361    0.8313   -1.8650 C   0  0  0  0  0  0  0  0  0  0  0  0
    3.5704    0.8647   -1.6692 C   0  0  0  0  0  0  0  0  0  0  0  0
    4.0219   -0.0528   -0.6112 C   0  0  0  0  0  0  0  0  0  0  0  0
    4.3424   -1.1965   -1.0210 O   0  0  0  0  0  0  0  0  0  0  0  0
    3.4578   -0.0427    0.6705 O   0  0  0  0  0  0  0  0  0  0  0  0
    4.2905   -0.4667    1.6829 C   0  0  0  0  0  0  0  0  0  0  0  0
    5.3489    0.5917    1.7161 C   0  0  0  0  0  0  0  0  0  0  0  0
    4.9943    1.7634    1.9245 O   0  0  0  0  0  0  0  0  0  0  0  0
    6.7373    0.1431    1.6175 C   0  0  0  0  0  0  0  0  0  0  0  0
    7.0924   -1.0105    2.3073 C   0  0  0  0  0  0  0  0  0  0  0  0
    8.1924   -0.9915    3.1573 C   0  0  0  0  0  0  0  0  0  0  0  0
    9.1181    0.0432    3.1140 C   0  0  0  0  0  0  0  0  0  0  0  0
    8.9614    0.9581    2.0925 C   0  0  0  0  0  0  0  0  0  0  0  0
    7.7844    1.0050    1.3559 C   0  0  0  0  0  0  0  0  0  0  0  0
   -1.8203   -0.4234   -2.0553 C   0  0  0  0  0  0  0  0  0  0  0  0
   -1.1581   -1.7427   -2.0584 C   0  0  1  0  0  0  0  0  0  0  0  0
   -0.7455   -0.7357   -0.7949 C   0  0  0  0  0  0  0  0  0  0  0  0
   -1.9816    0.2814   -0.6843 C   0  0  2  0  0  0  0  0  0  0  0  0
   -1.6225    0.8570    0.6953 O   0  0  0  0  0  0  0  0  0  0  0  0
  1  2  1  0
  2  3  3  0
  3  4  1  0
  5  4  1  1
  5  6  1  0
  5  7  1  0
  7  8  1  6
  7  9  1  0
  9 10  2  0
 11 10  1  6
 11 12  1  0
 12 13  1  1
 13 14  1  0
 14 15  2  0
 15 16  1  0
 16 17  1  0
 17 18  1  0
 18 19  1  0
 19 20  2  0
 19 21  1  0
 21 22  1  0
 22 23  1  0
 23 24  2  0
 23 25  1  0
 25 26  2  0
 26 27  1  0
 27 28  2  0
 28 29  1  0
 29 30  2  0
 14 31  1  0
 32 31  1  6
 32 33  1  0
 33 34  1  0
 34 35  1  1
 34 11  1  0
 32 12  1  0
 30 25  1  0
M  END
>  <zinc_id>  (177) 
ZINC000100052688

>  <smiles>  (177) 
CC#CC[C@@H](C)[C@H](O)/C=C/[C@@H]1[C@@H](O)C[C@@H]2C/C(=C/CCCC(=O)OCC(=O)c3ccccc3)C[C@H]21

$$$$

     RDKit          3D

 20 22  0  0  0  0  0  0  0  0999 V2000
    1.8789   -0.9877    2.1159 C   0  0  0  0  0  0  0  0  0  0  0  0
    2.0222   -0.3646    0.9693 C   0  0  0  0  0  0  0  0  0  0  0  0
    3.5161   -0.2773    0.5013 C   0  0  2  0  0  0  0  0  0  0  0  0
    3.3346    1.1697   -0.2275 C   0  0  0  0  0  0  0  0  0  0  0  0
    4.4011    1.9488    0.1565 O   0  0  0  0  0  0  0  0  0  0  0  0
    3.3794   -1.1026   -0.9845 C   0  0  1  0  0  0  0  0  0  0  0  0
    2.8180   -2.3390   -0.3207 O   0  0  0  0  0  0  0  0  0  0  0  0
    1.9672   -0.3710   -1.3666 C   0  0  0  0  0  0  0  0  0  0  0  0
    1.0971   -1.0198   -0.1475 C   0  0  2  0  0  0  0  0  0  0  0  0
    0.0505    0.1547   -0.0968 N   0  0  0  0  0  0  0  0  0  0  0  0
    0.1483    1.3730   -0.4949 C   0  0  0  0  0  0  0  0  0  0  0  0
   -0.9409    2.0336   -0.0400 N   0  0  0  0  0  0  0  0  0  0  0  0
   -1.8889    1.0864    0.1029 C   0  0  0  0  0  0  0  0  0  0  0  0
   -1.2221   -0.1305    0.1714 C   0  0  0  0  0  0  0  0  0  0  0  0
   -1.9891   -1.2216    0.2948 N   0  0  0  0  0  0  0  0  0  0  0  0
   -3.3388   -1.1389    0.2455 C   0  0  0  0  0  0  0  0  0  0  0  0
   -4.1320   -2.2981    0.4763 N   0  0  0  0  0  0  0  0  0  0  0  0
   -3.9829    0.0324    0.0325 N   0  0  0  0  0  0  0  0  0  0  0  0
   -3.2678    1.1759    0.0991 C   0  0  0  0  0  0  0  0  0  0  0  0
   -3.8510    2.2762    0.0226 O   0  0  0  0  0  0  0  0  0  0  0  0
  1  2  2  0
  2  3  1  0
  3  4  1  6
  4  5  1  0
  3  6  1  0
  6  7  1  1
  6  8  1  0
  8  9  1  0
  9 10  1  1
 10 11  1  0
 11 12  2  0
 12 13  1  0
 13 14  2  0
 14 15  1  0
 15 16  2  0
 16 17  1  0
 16 18  1  0
 18 19  1  0
 19 20  2  0
  9  2  1  0
 14 10  1  0
 19 13  1  0
M  END
>  <zinc_id>  (178) 
ZINC000003802690

>  <smiles>  (178) 
C=C1[C@@H](n2cnc3c(=O)[nH]c(N)nc32)C[C@H](O)[C@H]1CO

$$$$

     RDKit          3D

  9  8  0  0  0  0  0  0  0  0999 V2000
   -2.5638    0.6245   -0.6655 C   0  0  0  0  0  0  0  0  0  0  0  0
   -2.0524    0.6904   -0.4747 C   0  0  0  0  0  0  0  0  0  0  0  0
   -0.7946    0.1590    0.4465 C   0  0  1  0  0  0  0  0  0  0  0  0
   -1.7099   -0.9831    1.1054 N   0  0  0  0  0  0  0  0  0  0  0  0
   -0.2972   -0.8855   -0.7642 C   0  0  0  0  0  0  0  0  0  0  0  0
    1.1861   -1.0103   -0.5695 C   0  0  0  0  0  0  0  0  0  0  0  0
    1.7978    0.1590    0.0847 C   0  0  0  0  0  0  0  0  0  0  0  0
    2.3486    1.0618   -0.6112 O   0  0  0  0  0  0  0  0  0  0  0  0
    2.0855    0.1844    1.4484 O   0  0  0  0  0  0  0  0  0  0  0  0
  1  2  2  0
  3  2  1  6
  3  4  1  0
  3  5  1  0
  5  6  1  0
  6  7  1  0
  7  8  2  0
  7  9  1  0
M  END
>  <zinc_id>  (179) 
ZINC000003798750

>  <smiles>  (179) 
C=C[C@@H](N)CCC(=O)O

$$$$

     RDKit          3D

 17 17  0  0  0  0  0  0  0  0999 V2000
   -0.7117    3.0353    1.4742 C   0  0  0  0  0  0  0  0  0  0  0  0
   -1.2590    2.2477    0.9357 C   0  0  0  0  0  0  0  0  0  0  0  0
   -0.7470    1.6188   -0.2823 C   0  0  0  0  0  0  0  0  0  0  0  0
   -0.1140    0.2950   -0.1557 C   0  0  0  0  0  0  0  0  0  0  0  0
    1.5043    0.4817    0.0082 C   0  0  2  0  0  0  0  0  0  0  0  0
    1.5715    1.8180   -0.9495 C   0  0  0  0  0  0  0  0  0  0  0  0
    1.9367   -0.4918   -1.2454 C   0  0  0  0  0  0  0  0  0  0  0  0
    3.4547   -0.4248   -1.1306 C   0  0  0  0  0  0  0  0  0  0  0  0
    3.8715   -0.8711    0.2528 C   0  0  0  0  0  0  0  0  0  0  0  0
   -0.4301   -0.2553    1.2010 C   0  0  0  0  0  0  0  0  0  0  0  0
    0.1304    0.1734    2.2493 O   0  0  0  0  0  0  0  0  0  0  0  0
   -1.3860   -1.2882    1.4155 N   0  0  0  0  0  0  0  0  0  0  0  0
   -2.1799   -1.6846    0.2909 C   0  0  0  0  0  0  0  0  0  0  0  0
   -3.3385   -2.1386    0.4718 O   0  0  0  0  0  0  0  0  0  0  0  0
   -1.5540   -1.5376   -0.9628 N   0  0  0  0  0  0  0  0  0  0  0  0
   -0.4306   -0.6697   -1.1797 C   0  0  0  0  0  0  0  0  0  0  0  0
   -0.3182   -0.3081   -2.3934 O   0  0  0  0  0  0  0  0  0  0  0  0
  1  2  2  0
  2  3  1  0
  3  4  1  0
  5  4  1  6
  5  6  1  0
  5  7  1  0
  7  8  1  0
  8  9  1  0
  4 10  1  0
 10 11  2  0
 10 12  1  0
 12 13  1  0
 13 14  2  0
 13 15  1  0
 15 16  1  0
 16 17  2  0
 16  4  1  0
M  END
>  <zinc_id>  (180) 
ZINC000003874950

>  <smiles>  (180) 
C=CCC1([C@H](C)CCC)C(=O)NC(=O)NC1=O

$$$$

     RDKit          3D

  7  6  0  0  0  0  0  0  0  0999 V2000
   -0.0638    1.9784    0.0689 N   0  0  0  0  0  0  0  0  0  0  0  0
    0.3116    0.6568   -0.7456 C   0  0  1  0  0  0  0  0  0  0  0  0
    1.5455    0.2870    0.3122 C   0  0  0  0  0  0  0  0  0  0  0  0
    1.6127   -1.5147    0.0089 S   0  0  0  0  0  0  0  0  0  0  0  0
   -0.7147   -0.3123    0.0670 C   0  0  0  0  0  0  0  0  0  0  0  0
   -1.2756    0.0911    1.0586 O   0  0  0  0  0  0  0  0  0  0  0  0
   -1.4158   -1.1863   -0.7701 O   0  0  0  0  0  0  0  0  0  0  0  0
  2  1  1  1
  2  3  1  0
  3  4  1  0
  2  5  1  0
  5  6  2  0
  5  7  1  0
M  END
>  <zinc_id>  (181) 
ZINC000000895042

>  <smiles>  (181) 
N[C@@H](CS)C(=O)O

$$$$

     RDKit          3D

  6  5  0  0  0  0  0  0  0  0999 V2000
    2.2636   -0.3469   -0.4809 O   0  0  0  0  0  0  0  0  0  0  0  0
    1.0380   -0.8035   -0.0603 C   0  0  0  0  0  0  0  0  0  0  0  0
   -0.0349    0.1888    0.0553 C   0  0  0  0  0  0  0  0  0  0  0  0
    0.3069    1.4991    0.1874 O   0  0  0  0  0  0  0  0  0  0  0  0
   -1.3374   -0.1135   -0.5720 C   0  0  0  0  0  0  0  0  0  0  0  0
   -2.2362   -0.4239    0.4630 O   0  0  0  0  0  0  0  0  0  0  0  0
  1  2  1  0
  2  3  1  0
  3  4  1  0
  3  5  1  0
  5  6  1  0
M  END
>  <zinc_id>  (182) 
ZINC000000895048

>  <smiles>  (182) 
OCC(O)CO

$$$$

     RDKit          3D

  5  4  0  0  0  0  0  0  0  0999 V2000
   -1.2088   -0.9431   -0.4373 C   0  0  0  0  0  0  0  0  0  0  0  0
   -0.6454    0.1015    0.7404 C   0  0  2  0  0  0  0  0  0  0  0  0
   -0.5092    1.2318   -0.2957 O   0  0  0  0  0  0  0  0  0  0  0  0
    0.9146   -0.4547    0.5479 C   0  0  0  0  0  0  0  0  0  0  0  0
    1.4488    0.0645   -0.5552 O   0  0  0  0  0  0  0  0  0  0  0  0
  2  1  1  6
  2  3  1  0
  2  4  1  0
  4  5  1  0
M  END
>  <zinc_id>  (183) 
ZINC000000895316

>  <smiles>  (183) 
C[C@H](O)CO

$$$$

     RDKit          3D

  9  9  0  0  0  0  0  0  0  0999 V2000
    1.8897    1.6055   -0.0497 O   0  0  0  0  0  0  0  0  0  0  0  0
    1.6353    0.4160    0.0134 C   0  0  0  0  0  0  0  0  0  0  0  0
    2.6212   -0.5119   -0.3413 O   0  0  0  0  0  0  0  0  0  0  0  0
    0.2180    0.0172   -0.7277 C   0  0  2  0  0  0  0  0  0  0  0  0
   -0.6762    0.8891    0.3724 C   0  0  0  0  0  0  0  0  0  0  0  0
   -1.9824   -0.1653    0.4495 C   0  0  1  0  0  0  0  0  0  0  0  0
   -2.5925    0.4315   -0.8485 O   0  0  0  0  0  0  0  0  0  0  0  0
   -1.2063   -1.3809   -0.4136 C   0  0  0  0  0  0  0  0  0  0  0  0
    0.0933   -1.3012    0.1886 N   0  0  0  0  0  0  0  0  0  0  0  0
  1  2  2  0
  2  3  1  0
  4  2  1  1
  4  5  1  0
  5  6  1  0
  6  7  1  6
  6  8  1  0
  8  9  1  0
  9  4  1  0
M  END
>  <zinc_id>  (184) 
ZINC000000901791

>  <smiles>  (184) 
O=C(O)[C@@H]1C[C@@H](O)CN1

$$$$

     RDKit          3D

 13 12  0  0  0  0  0  0  0  0999 V2000
   -3.3404    0.1809    0.1411 O   0  0  0  0  0  0  0  0  0  0  0  0
   -2.6384   -0.6966    0.2548 C   0  0  0  0  0  0  0  0  0  0  0  0
   -3.2496   -1.6820    1.0507 O   0  0  0  0  0  0  0  0  0  0  0  0
   -1.1146   -0.4154    0.7829 C   0  0  2  0  0  0  0  0  0  0  0  0
   -1.1938    1.1011    0.5848 O   0  0  0  0  0  0  0  0  0  0  0  0
   -0.3898   -0.7097   -0.7758 C   0  0  1  0  0  0  0  0  0  0  0  0
   -1.3156    0.2015   -1.5353 O   0  0  0  0  0  0  0  0  0  0  0  0
    0.7701    0.5500   -0.5981 C   0  0  2  0  0  0  0  0  0  0  0  0
    1.3589    0.2133   -1.9412 O   0  0  0  0  0  0  0  0  0  0  0  0
    1.9096   -0.4815    0.2013 C   0  0  2  0  0  0  0  0  0  0  0  0
    1.8551    0.3386    1.4869 O   0  0  0  0  0  0  0  0  0  0  0  0
    3.2083    0.4006   -0.3343 C   0  0  0  0  0  0  0  0  0  0  0  0
    4.1401    0.3347    0.6822 O   0  0  0  0  0  0  0  0  0  0  0  0
  1  2  2  0
  2  3  1  0
  4  2  1  6
  4  5  1  0
  4  6  1  0
  6  7  1  6
  6  8  1  0
  8  9  1  6
  8 10  1  0
 10 11  1  1
 10 12  1  0
 12 13  1  0
M  END
>  <zinc_id>  (185) 
ZINC000001531008

>  <smiles>  (185) 
O=C(O)[C@H](O)[C@@H](O)[C@H](O)[C@H](O)CO

$$$$

     RDKit          3D

 10  9  0  0  0  0  0  0  0  0999 V2000
    3.2955    1.4782   -0.1913 N   0  0  0  0  0  0  0  0  0  0  0  0
    3.0683    0.0424   -0.0759 C   0  0  0  0  0  0  0  0  0  0  0  0
    1.9854   -0.1335    0.9517 C   0  0  0  0  0  0  0  0  0  0  0  0
    1.0407   -1.2610    0.5778 C   0  0  0  0  0  0  0  0  0  0  0  0
   -0.3425   -0.7748    1.0005 C   0  0  0  0  0  0  0  0  0  0  0  0
   -1.1836   -0.9352   -0.4347 C   0  0  2  0  0  0  0  0  0  0  0  0
   -0.1887    0.0808   -1.1732 N   0  0  0  0  0  0  0  0  0  0  0  0
   -2.2513    0.2170    0.0137 C   0  0  0  0  0  0  0  0  0  0  0  0
   -3.4222   -0.2192    0.0505 O   0  0  0  0  0  0  0  0  0  0  0  0
   -2.0016    1.5052   -0.2311 O   0  0  0  0  0  0  0  0  0  0  0  0
  1  2  1  0
  2  3  1  0
  3  4  1  0
  4  5  1  0
  6  5  1  1
  6  7  1  0
  6  8  1  0
  8  9  2  0
  8 10  1  0
M  END
>  <zinc_id>  (186) 
ZINC000001532522

>  <smiles>  (186) 
NCCCC[C@H](N)C(=O)O

$$$$

     RDKit          3D

 12 12  0  0  0  0  0  0  0  0999 V2000
   -1.9949   -1.8629    0.3848 O   0  0  0  0  0  0  0  0  0  0  0  0
   -1.1024   -1.0235    0.1451 C   0  0  0  0  0  0  0  0  0  0  0  0
   -0.0705   -1.3381   -0.5573 O   0  0  0  0  0  0  0  0  0  0  0  0
    1.1262   -0.4862   -0.9464 C   0  0  2  0  0  0  0  0  0  0  0  0
    2.1321   -1.4414   -0.0802 C   0  0  0  0  0  0  0  0  0  0  0  0
    2.7429   -0.7383    0.8787 O   0  0  0  0  0  0  0  0  0  0  0  0
    0.8177    0.6245    0.3186 C   0  0  1  0  0  0  0  0  0  0  0  0
    1.7014    1.6665   -0.2846 O   0  0  0  0  0  0  0  0  0  0  0  0
   -0.5503    1.1553   -0.5503 C   0  0  2  0  0  0  0  0  0  0  0  0
   -0.5673    2.4950    0.1102 O   0  0  0  0  0  0  0  0  0  0  0  0
   -1.4810    0.4363    0.6988 C   0  0  1  0  0  0  0  0  0  0  0  0
   -2.7541    0.5127   -0.1174 O   0  0  0  0  0  0  0  0  0  0  0  0
  1  2  2  0
  2  3  1  0
  3  4  1  0
  4  5  1  1
  5  6  1  0
  4  7  1  0
  7  8  1  6
  7  9  1  0
  9 10  1  1
  9 11  1  0
 11 12  1  6
 11  2  1  0
M  END
>  <zinc_id>  (187) 
ZINC000002539702

>  <smiles>  (187) 
O=C1O[C@H](CO)[C@@H](O)[C@H](O)[C@H]1O

$$$$

     RDKit          3D

  7  6  0  0  0  0  0  0  0  0999 V2000
   -1.9773   -0.5832    0.1202 N   0  0  0  0  0  0  0  0  0  0  0  0
   -1.7768    0.8167   -0.1498 C   0  0  0  0  0  0  0  0  0  0  0  0
   -0.3515    1.2542   -0.0374 C   0  0  0  0  0  0  0  0  0  0  0  0
    0.8057   -0.0713    0.0336 S   0  0  0  0  0  0  0  0  0  0  0  0
    0.7033   -0.7140    1.3883 O   0  0  0  0  0  0  0  0  0  0  0  0
    2.1875    0.4878   -0.1951 O   0  0  0  0  0  0  0  0  0  0  0  0
    0.4092   -1.1902   -1.1599 O   0  0  0  0  0  0  0  0  0  0  0  0
  1  2  1  0
  2  3  1  0
  3  4  1  0
  4  5  2  0
  4  6  2  0
  4  7  1  0
M  END
>  <zinc_id>  (188) 
ZINC000003809490

>  <smiles>  (188) 
NCCS(=O)(=O)O

$$$$

     RDKit          3D

 20 19  0  0  0  0  0  0  0  0999 V2000
    3.8156    2.3656    0.0828 N   0  0  0  0  0  0  0  0  0  0  0  0
    3.8566    0.8298    0.4728 C   0  0  1  0  0  0  0  0  0  0  0  0
    3.0666    0.4068   -0.9175 C   0  0  0  0  0  0  0  0  0  0  0  0
    2.2015   -0.7358   -0.4910 C   0  0  0  0  0  0  0  0  0  0  0  0
    0.7598   -0.4363   -0.5564 C   0  0  0  0  0  0  0  0  0  0  0  0
    0.3455    0.7291   -0.2751 O   0  0  0  0  0  0  0  0  0  0  0  0
   -0.2463   -1.4476   -0.4031 N   0  0  0  0  0  0  0  0  0  0  0  0
   -1.4642   -0.9950   -1.3153 C   0  0  1  0  0  0  0  0  0  0  0  0
   -1.7814   -2.5512   -1.7712 C   0  0  0  0  0  0  0  0  0  0  0  0
   -2.0793   -3.5249   -0.3150 S   0  0  0  0  0  0  0  0  0  0  0  0
   -2.5312   -1.0404   -0.0924 C   0  0  0  0  0  0  0  0  0  0  0  0
   -2.1671   -0.4863    0.9559 O   0  0  0  0  0  0  0  0  0  0  0  0
   -3.8107   -0.6822   -0.6296 N   0  0  0  0  0  0  0  0  0  0  0  0
   -4.7426    0.1819    0.0488 C   0  0  0  0  0  0  0  0  0  0  0  0
   -4.2845    1.5725    0.1739 C   0  0  0  0  0  0  0  0  0  0  0  0
   -3.6412    1.9584    1.1962 O   0  0  0  0  0  0  0  0  0  0  0  0
   -4.4960    2.5242   -0.7982 O   0  0  0  0  0  0  0  0  0  0  0  0
    5.3167    0.6177   -0.2095 C   0  0  0  0  0  0  0  0  0  0  0  0
    6.1915    1.4216    0.2488 O   0  0  0  0  0  0  0  0  0  0  0  0
    5.6907   -0.7080    0.0666 O   0  0  0  0  0  0  0  0  0  0  0  0
  2  1  1  6
  2  3  1  0
  3  4  1  0
  4  5  1  0
  5  6  2  0
  5  7  1  0
  8  7  1  1
  8  9  1  0
  9 10  1  0
  8 11  1  0
 11 12  2  0
 11 13  1  0
 13 14  1  0
 14 15  1  0
 15 16  2  0
 15 17  1  0
  2 18  1  0
 18 19  2  0
 18 20  1  0
M  END
>  <zinc_id>  (189) 
ZINC000003830891

>  <smiles>  (189) 
N[C@@H](CCC(=O)N[C@@H](CS)C(=O)NCC(=O)O)C(=O)O

$$$$

     RDKit          3D

 29 31  0  0  0  0  0  0  0  0999 V2000
    3.7032    0.0927    1.7855 C   0  0  0  0  0  0  0  0  0  0  0  0
    4.6160    0.0243    1.2073 C   0  0  0  0  0  0  0  0  0  0  0  0
    5.7975    0.9564    1.3108 C   0  0  0  0  0  0  0  0  0  0  0  0
    5.5908    1.8416    0.1323 C   0  0  0  0  0  0  0  0  0  0  0  0
    6.3374    1.1362   -1.1616 C   0  0  2  0  0  0  0  0  0  0  0  0
    5.1067    1.3122   -2.0406 O   0  0  0  0  0  0  0  0  0  0  0  0
    5.9065   -0.4163   -0.7890 C   0  0  0  0  0  0  0  0  0  0  0  0
    4.5491   -0.3527   -0.2240 C   0  0  0  0  0  0  0  0  0  0  0  0
    3.5409   -1.1257   -0.6215 C   0  0  0  0  0  0  0  0  0  0  0  0
    2.4662   -1.3656    0.3496 C   0  0  0  0  0  0  0  0  0  0  0  0
    1.2019   -1.5835   -0.0375 C   0  0  0  0  0  0  0  0  0  0  0  0
    0.9547   -1.3314   -1.4504 C   0  0  0  0  0  0  0  0  0  0  0  0
    0.2265   -0.0666   -1.7300 C   0  0  0  0  0  0  0  0  0  0  0  0
   -0.7092    0.3785   -0.6689 C   0  0  0  0  0  0  0  0  0  0  0  0
   -1.0681   -0.7675    0.1511 C   0  0  1  0  0  0  0  0  0  0  0  0
   -1.1971   -2.0254   -0.4324 C   0  0  0  0  0  0  0  0  0  0  0  0
    0.2948   -0.8410    1.0639 C   0  0  1  0  0  0  0  0  0  0  0  0
   -0.2394   -2.2353    1.7216 C   0  0  0  0  0  0  0  0  0  0  0  0
   -1.6108   -1.8836    2.1481 C   0  0  0  0  0  0  0  0  0  0  0  0
   -1.8388   -0.4084    1.4995 C   0  0  2  0  0  0  0  0  0  0  0  0
   -3.4607   -0.7069    1.0689 C   0  0  2  0  0  0  0  0  0  0  0  0
   -3.3403   -2.2011    0.4627 C   0  0  0  0  0  0  0  0  0  0  0  0
   -3.3518    0.0284   -0.3745 C   0  0  0  0  0  0  0  0  0  0  0  0
   -3.6488    1.4687    0.0398 C   0  0  0  0  0  0  0  0  0  0  0  0
   -4.8524    1.5370    0.9297 C   0  0  0  0  0  0  0  0  0  0  0  0
   -5.9842    2.0263    0.0344 C   0  0  0  0  0  0  0  0  0  0  0  0
   -6.5532    0.8683   -0.7368 C   0  0  0  0  0  0  0  0  0  0  0  0
   -6.9779    2.6893    0.9431 C   0  0  0  0  0  0  0  0  0  0  0  0
   -5.4594    2.9512   -0.8817 O   0  0  0  0  0  0  0  0  0  0  0  0
  1  2  2  0
  2  3  1  0
  3  4  1  0
  4  5  1  0
  5  6  1  6
  5  7  1  0
  7  8  1  0
  8  9  2  0
  9 10  1  0
 10 11  2  0
 11 12  1  0
 12 13  1  0
 13 14  1  0
 14 15  1  0
 15 16  1  6
 15 17  1  0
 17 18  1  1
 18 19  1  0
 20 19  1  1
 20 21  1  0
 21 22  1  6
 21 23  1  0
 23 24  1  0
 24 25  1  0
 25 26  1  0
 26 27  1  0
 26 28  1  0
 26 29  1  0
  8  2  1  0
 17 11  1  0
 20 15  1  0
M  END
>  <zinc_id>  (190) 
ZINC000004474414

>  <smiles>  (190) 
C=C1CC[C@H](O)C/C1=C/C=C1\CCC[C@@]2(C)[C@H]1CC[C@@H]2[C@H](C)CCCC(C)(C)O

$$$$

     RDKit          3D

  5  4  0  0  0  0  0  0  0  0999 V2000
    0.0113    1.5201   -0.0956 O   0  0  0  0  0  0  0  0  0  0  0  0
    0.0245    0.0182   -0.0011 S   0  0  0  0  0  0  0  0  0  0  0  0
   -0.8140   -0.4217    1.3884 O   0  0  0  0  0  0  0  0  0  0  0  0
    1.6031   -0.5265    0.0513 O   0  0  0  0  0  0  0  0  0  0  0  0
   -0.8249   -0.5901   -1.3429 S   0  0  0  0  0  0  0  0  0  0  0  0
  1  2  2  0
  2  3  1  0
  2  4  1  0
  2  5  2  0
M  END
>  <zinc_id>  (191) 
ZINC000008214573

>  <smiles>  (191) 
O=S(O)(O)=S

$$$$

     RDKit          3D

 12 11  0  0  0  0  0  0  0  0999 V2000
    3.1067    0.9216    0.6412 O   0  0  0  0  0  0  0  0  0  0  0  0
    2.2755   -0.0969    0.3553 C   0  0  0  0  0  0  0  0  0  0  0  0
    1.4169    0.5475   -0.9169 C   0  0  1  0  0  0  0  0  0  0  0  0
    2.0718   -0.3982   -1.9286 O   0  0  0  0  0  0  0  0  0  0  0  0
    0.0176   -0.4884   -0.7246 C   0  0  1  0  0  0  0  0  0  0  0  0
    0.7980   -1.7299   -0.3807 O   0  0  0  0  0  0  0  0  0  0  0  0
   -0.1588   -0.0518    0.9331 C   0  0  2  0  0  0  0  0  0  0  0  0
   -0.9560   -1.3033    1.2270 O   0  0  0  0  0  0  0  0  0  0  0  0
   -1.5633    0.9466    0.6415 C   0  0  1  0  0  0  0  0  0  0  0  0
   -0.9600    1.6028   -0.6081 O   0  0  0  0  0  0  0  0  0  0  0  0
   -2.3817   -0.2119   -0.2393 C   0  0  0  0  0  0  0  0  0  0  0  0
   -3.6667    0.2619    0.1159 O   0  0  0  0  0  0  0  0  0  0  0  0
  1  2  1  0
  3  2  1  1
  3  4  1  0
  3  5  1  0
  5  6  1  1
  5  7  1  0
  7  8  1  1
  7  9  1  0
  9 10  1  6
  9 11  1  0
 11 12  1  0
M  END
>  <zinc_id>  (192) 
ZINC000018279893

>  <smiles>  (192) 
OC[C@H](O)[C@@H](O)[C@H](O)[C@H](O)CO

$$$$

     RDKit          3D

 22 22  0  0  0  0  0  0  0  0999 V2000
   -0.5026   -2.1470    2.6198 C   0  0  0  0  0  0  0  0  0  0  0  0
    0.0983   -1.3875    1.4785 C   0  0  0  0  0  0  0  0  0  0  0  0
   -0.7095   -0.9508    0.3326 C   0  0  0  0  0  0  0  0  0  0  0  0
   -1.3248    0.2059    0.2778 C   0  0  0  0  0  0  0  0  0  0  0  0
   -2.7363    0.3825   -0.0297 C   0  0  0  0  0  0  0  0  0  0  0  0
   -3.5654    0.7531    0.9470 C   0  0  0  0  0  0  0  0  0  0  0  0
   -3.0610    0.8698    2.3382 C   0  0  0  0  0  0  0  0  0  0  0  0
   -4.9884    0.3164    0.7891 C   0  0  0  0  0  0  0  0  0  0  0  0
   -5.4856    0.9954   -0.4814 C   0  0  0  0  0  0  0  0  0  0  0  0
   -4.5655    0.7200   -1.6455 C   0  0  0  0  0  0  0  0  0  0  0  0
   -3.3822   -0.1432   -1.2574 C   0  0  0  0  0  0  0  0  0  0  0  0
   -2.4362   -0.1424   -2.4459 C   0  0  0  0  0  0  0  0  0  0  0  0
   -3.8844   -1.5607   -1.0222 C   0  0  0  0  0  0  0  0  0  0  0  0
    1.2647   -0.7679    1.6191 C   0  0  0  0  0  0  0  0  0  0  0  0
    2.1222   -0.7120    0.4286 C   0  0  0  0  0  0  0  0  0  0  0  0
    3.3111   -0.1452    0.5736 C   0  0  0  0  0  0  0  0  0  0  0  0
    4.5103   -0.6333   -0.1197 C   0  0  0  0  0  0  0  0  0  0  0  0
    5.0325   -2.0148    0.1212 C   0  0  0  0  0  0  0  0  0  0  0  0
    5.4215    0.2868   -0.3956 C   0  0  0  0  0  0  0  0  0  0  0  0
    4.9867    1.5483   -0.9763 C   0  0  0  0  0  0  0  0  0  0  0  0
    5.8215    2.1281   -1.7352 O   0  0  0  0  0  0  0  0  0  0  0  0
    4.0731    2.3986   -0.3477 O   0  0  0  0  0  0  0  0  0  0  0  0
  1  2  1  0
  2  3  1  0
  3  4  2  0
  4  5  1  0
  5  6  2  0
  6  7  1  0
  6  8  1  0
  8  9  1  0
  9 10  1  0
 10 11  1  0
 11 12  1  0
 11 13  1  0
  2 14  2  0
 14 15  1  0
 15 16  2  0
 16 17  1  0
 17 18  1  0
 17 19  2  0
 19 20  1  0
 20 21  2  0
 20 22  1  0
 11  5  1  0
M  END
>  <zinc_id>  (193) 
ZINC000033943508

>  <smiles>  (193) 
CC1=C(/C=C/C(C)=C\C=C\C(C)=C/C(=O)O)C(C)(C)CCC1

$$$$

     RDKit          3D

 10  9  0  0  0  0  0  0  0  0999 V2000
    2.7665    1.4099   -0.5158 C   0  0  0  0  0  0  0  0  0  0  0  0
    2.3448    0.0721   -0.3553 O   0  0  0  0  0  0  0  0  0  0  0  0
    1.2678   -0.1623    0.4780 C   0  0  0  0  0  0  0  0  0  0  0  0
    1.0728    0.5883    1.4797 O   0  0  0  0  0  0  0  0  0  0  0  0
    0.6815   -1.4957    0.4147 C   0  0  0  0  0  0  0  0  0  0  0  0
   -0.6042   -1.5819    0.1614 C   0  0  0  0  0  0  0  0  0  0  0  0
   -1.4371   -0.5053   -0.3223 C   0  0  0  0  0  0  0  0  0  0  0  0
   -2.0284   -0.6706   -1.4316 O   0  0  0  0  0  0  0  0  0  0  0  0
   -1.4715    0.7738    0.1918 O   0  0  0  0  0  0  0  0  0  0  0  0
   -2.5923    1.5717   -0.1007 C   0  0  0  0  0  0  0  0  0  0  0  0
  1  2  1  0
  2  3  1  0
  3  4  2  0
  3  5  1  0
  5  6  2  0
  6  7  1  0
  7  8  2  0
  7  9  1  0
  9 10  1  0
M  END
>  <zinc_id>  (194) 
ZINC000100017404

>  <smiles>  (194) 
COC(=O)/C=C\C(=O)OC

$$$$

     RDKit          3D

  9  9  0  0  0  0  0  0  0  0999 V2000
    1.9370   -0.3354    1.2602 O   0  0  0  0  0  0  0  0  0  0  0  0
    1.7191   -0.1798    0.0209 C   0  0  0  0  0  0  0  0  0  0  0  0
    2.7491    0.3856   -0.7092 O   0  0  0  0  0  0  0  0  0  0  0  0
    0.3052   -0.0425   -0.3522 C   0  0  0  0  0  0  0  0  0  0  0  0
   -0.3444    1.1680   -0.2029 C   0  0  0  0  0  0  0  0  0  0  0  0
   -1.6760    1.2160    0.1940 C   0  0  0  0  0  0  0  0  0  0  0  0
   -2.3684    0.0387    0.4557 C   0  0  0  0  0  0  0  0  0  0  0  0
   -1.8099   -1.1065   -0.0960 C   0  0  0  0  0  0  0  0  0  0  0  0
   -0.5118   -1.1442   -0.5705 C   0  0  0  0  0  0  0  0  0  0  0  0
  1  2  2  0
  2  3  1  0
  2  4  1  0
  4  5  2  0
  5  6  1  0
  6  7  2  0
  7  8  1  0
  8  9  2  0
  9  4  1  0
M  END
>  <zinc_id>  (195) 
ZINC000000001011

>  <smiles>  (195) 
O=C(O)c1ccccc1

$$$$

     RDKit          3D

 12 12  0  0  0  0  0  0  0  0999 V2000
    4.2107   -1.1409   -0.1675 C   0  0  0  0  0  0  0  0  0  0  0  0
    3.0082   -0.7208   -0.5794 C   0  0  0  0  0  0  0  0  0  0  0  0
    2.5103    0.5292    0.0801 C   0  0  0  0  0  0  0  0  0  0  0  0
    1.0721    0.3410    0.4495 C   0  0  0  0  0  0  0  0  0  0  0  0
    0.4229    1.4044    1.0645 C   0  0  0  0  0  0  0  0  0  0  0  0
   -0.9188    1.6665    0.8103 C   0  0  0  0  0  0  0  0  0  0  0  0
   -1.6107    0.8347   -0.0625 C   0  0  0  0  0  0  0  0  0  0  0  0
   -2.6646    1.2533   -0.8432 O   0  0  0  0  0  0  0  0  0  0  0  0
   -1.0875   -0.4503   -0.1652 C   0  0  0  0  0  0  0  0  0  0  0  0
   -1.9712   -1.4715   -0.5239 O   0  0  0  0  0  0  0  0  0  0  0  0
   -3.2595   -1.5974    0.0733 C   0  0  0  0  0  0  0  0  0  0  0  0
    0.2881   -0.6481   -0.1358 C   0  0  0  0  0  0  0  0  0  0  0  0
  1  2  2  0
  2  3  1  0
  3  4  1  0
  4  5  2  0
  5  6  1  0
  6  7  2  0
  7  8  1  0
  7  9  1  0
  9 10  1  0
 10 11  1  0
  9 12  2  0
 12  4  1  0
M  END
>  <zinc_id>  (196) 
ZINC000000001411

>  <smiles>  (196) 
C=CCc1ccc(O)c(OC)c1

$$$$

     RDKit          3D

  5  4  0  0  0  0  0  0  0  0999 V2000
   -0.8358    1.1758   -0.3082 C   0  0  0  0  0  0  0  0  0  0  0  0
   -0.6741   -0.1055    0.7313 C   0  0  1  0  0  0  0  0  0  0  0  0
   -0.7712   -1.1115   -0.4115 O   0  0  0  0  0  0  0  0  0  0  0  0
    0.9796   -0.0723    0.6515 C   0  0  0  0  0  0  0  0  0  0  0  0
    1.3016    0.1134   -0.6631 O   0  0  0  0  0  0  0  0  0  0  0  0
  2  1  1  6
  2  3  1  0
  2  4  1  0
  4  5  1  0
M  END
>  <zinc_id>  (197) 
ZINC000000895318

>  <smiles>  (197) 
C[C@@H](O)CO

$$$$

     RDKit          3D

 22 22  0  0  0  0  0  0  0  0999 V2000
   -5.5714    0.0517    3.6653 C   0  0  0  0  0  0  0  0  0  0  0  0
   -5.9759   -0.1634    2.3160 O   0  0  0  0  0  0  0  0  0  0  0  0
   -5.0467    0.1835    1.3299 C   0  0  0  0  0  0  0  0  0  0  0  0
   -3.7999    0.6744    1.6131 C   0  0  0  0  0  0  0  0  0  0  0  0
   -2.7013    0.5282    0.7910 C   0  0  0  0  0  0  0  0  0  0  0  0
   -1.3418    0.5405    1.3616 C   0  0  0  0  0  0  0  0  0  0  0  0
   -0.3498    1.1008    0.4746 N   0  0  0  0  0  0  0  0  0  0  0  0
    0.5791    0.2659   -0.2251 C   0  0  0  0  0  0  0  0  0  0  0  0
    0.0674   -0.7814   -0.7250 O   0  0  0  0  0  0  0  0  0  0  0  0
    2.0327    0.5589   -0.2903 C   0  0  0  0  0  0  0  0  0  0  0  0
    2.3481    1.3562   -1.5492 C   0  0  0  0  0  0  0  0  0  0  0  0
    2.7045    0.3293   -2.6174 C   0  0  0  0  0  0  0  0  0  0  0  0
    3.5723   -0.7142   -1.9240 C   0  0  0  0  0  0  0  0  0  0  0  0
    4.6061    0.0525   -1.1557 C   0  0  0  0  0  0  0  0  0  0  0  0
    5.5701   -0.5583   -0.4778 C   0  0  0  0  0  0  0  0  0  0  0  0
    6.9215    0.0902   -0.4425 C   0  0  0  0  0  0  0  0  0  0  0  0
    7.7658   -0.6099   -1.4997 C   0  0  0  0  0  0  0  0  0  0  0  0
    7.5497   -0.0045    0.9252 C   0  0  0  0  0  0  0  0  0  0  0  0
   -2.9655    0.1263   -0.5058 C   0  0  0  0  0  0  0  0  0  0  0  0
   -4.2441   -0.2470   -0.8949 C   0  0  0  0  0  0  0  0  0  0  0  0
   -5.2486   -0.3370    0.0605 C   0  0  0  0  0  0  0  0  0  0  0  0
   -6.4723   -0.9177   -0.2298 O   0  0  0  0  0  0  0  0  0  0  0  0
  1  2  1  0
  2  3  1  0
  3  4  2  0
  4  5  1  0
  5  6  1  0
  6  7  1  0
  7  8  1  0
  8  9  2  0
  8 10  1  0
 10 11  1  0
 11 12  1  0
 12 13  1  0
 13 14  1  0
 14 15  2  0
 15 16  1  0
 16 17  1  0
 16 18  1  0
  5 19  2  0
 19 20  1  0
 20 21  2  0
 21 22  1  0
 21  3  1  0
M  END
>  <zinc_id>  (198) 
ZINC000001530575

>  <smiles>  (198) 
COc1cc(CNC(=O)CCCC/C=C/C(C)C)ccc1O

$$$$

     RDKit          3D

  5  5  0  0  0  0  0  0  0  0999 V2000
    1.6519   -0.7455    0.1125 Cl  0  0  0  0  0  0  0  0  0  0  0  0
    1.0012    0.7807   -0.0220 C   0  0  0  0  0  0  0  0  0  0  0  0
   -0.6243    0.7276   -0.5832 C   0  0  1  0  0  0  0  0  0  0  0  0
   -0.8296   -0.9128   -0.3480 C   0  0  0  0  0  0  0  0  0  0  0  0
   -1.1991    0.1501    0.8407 O   0  0  0  0  0  0  0  0  0  0  0  0
  1  2  1  0
  3  2  1  1
  3  4  1  0
  4  5  1  0
  5  3  1  0
M  END
>  <zinc_id>  (199) 
ZINC000002016052

>  <smiles>  (199) 
ClC[C@H]1CO1

$$$$

     RDKit          3D

 30 32  0  0  0  0  0  0  0  0999 V2000
   -3.7184    3.6994   -0.7002 C   0  0  0  0  0  0  0  0  0  0  0  0
   -3.3916    3.1853   -0.6946 C   0  0  0  0  0  0  0  0  0  0  0  0
   -4.0757    1.9010   -0.3189 C   0  0  0  0  0  0  0  0  0  0  0  0
   -4.7439    2.1734    1.0256 C   0  0  0  0  0  0  0  0  0  0  0  0
   -5.2345    1.6621   -1.2839 C   0  0  0  0  0  0  0  0  0  0  0  0
   -3.2424    0.7254   -0.2672 C   0  0  0  0  0  0  0  0  0  0  0  0
   -3.7440   -0.3698   -0.6658 O   0  0  0  0  0  0  0  0  0  0  0  0
   -2.0050    0.4742    0.1941 O   0  0  0  0  0  0  0  0  0  0  0  0
   -1.8246   -0.4704    1.3969 C   0  0  1  0  0  0  0  0  0  0  0  0
   -2.9911   -1.5139    0.8814 C   0  0  0  0  0  0  0  0  0  0  0  0
   -2.5118   -2.9195    1.5630 C   0  0  1  0  0  0  0  0  0  0  0  0
   -3.8243   -3.6970    0.9425 C   0  0  0  0  0  0  0  0  0  0  0  0
   -1.6156   -3.3061    0.2771 C   0  0  0  0  0  0  0  0  0  0  0  0
   -1.2039   -2.1759   -0.3209 C   0  0  0  0  0  0  0  0  0  0  0  0
   -0.6423   -2.2880   -1.6186 C   0  0  0  0  0  0  0  0  0  0  0  0
    0.3791   -1.6197   -2.0672 C   0  0  0  0  0  0  0  0  0  0  0  0
    1.3418   -0.9526   -0.9643 C   0  0  2  0  0  0  0  0  0  0  0  0
    1.3821   -2.2972   -0.0376 C   0  0  0  0  0  0  0  0  0  0  0  0
    0.0563   -0.1244   -0.2402 C   0  0  2  0  0  0  0  0  0  0  0  0
    0.9594    0.6281    0.8634 C   0  0  0  0  0  0  0  0  0  0  0  0
    2.2105   -0.0535    1.1587 C   0  0  0  0  0  0  0  0  0  0  0  0
    3.3484    0.4943    0.0943 C   0  0  2  0  0  0  0  0  0  0  0  0
    4.5096   -0.4843    0.7351 C   0  0  0  0  0  0  0  0  0  0  0  0
    5.8080   -0.1815   -0.2473 C   0  0  1  0  0  0  0  0  0  0  0  0
    5.0551    0.5342   -1.3726 O   0  0  0  0  0  0  0  0  0  0  0  0
    6.1697    1.2317    0.5450 C   0  0  0  0  0  0  0  0  0  0  0  0
    4.9898    2.0931    0.4620 C   0  0  0  0  0  0  0  0  0  0  0  0
    5.2457    3.3277    0.3057 O   0  0  0  0  0  0  0  0  0  0  0  0
    3.7790    1.6603    1.0244 O   0  0  0  0  0  0  0  0  0  0  0  0
   -0.4653   -1.3367    0.8042 C   0  0  1  0  0  0  0  0  0  0  0  0
  1  2  1  0
  2  3  1  0
  3  4  1  0
  3  5  1  0
  3  6  1  0
  6  7  2  0
  6  8  1  0
  9  8  1  6
  9 10  1  0
 10 11  1  0
 11 12  1  6
 11 13  1  0
 13 14  2  0
 14 15  1  0
 15 16  2  0
 16 17  1  0
 17 18  1  1
 17 19  1  0
 19 20  1  1
 20 21  1  0
 22 21  1  1
 22 23  1  0
 23 24  1  0
 24 25  1  6
 24 26  1  0
 26 27  1  0
 27 28  2  0
 27 29  1  0
 19 30  1  0
 30  9  1  0
 30 14  1  6
 29 22  1  0
M  END
>  <zinc_id>  (200) 
ZINC000003780893

>  <smiles>  (200) 
CCC(C)(C)C(=O)O[C@H]1C[C@@H](C)C=C2C=C[C@H](C)[C@H](CC[C@@H]3C[C@@H](O)CC(=O)O3)[C@H]21

$$$$

     RDKit          3D

 28 31  0  0  0  0  0  0  0  0999 V2000
   -2.9316    1.4994    1.6455 C   0  0  0  0  0  0  0  0  0  0  0  0
   -3.3643   -0.0216    1.2357 C   0  0  2  0  0  0  0  0  0  0  0  0
   -1.9253   -0.6417    1.7078 C   0  0  0  0  0  0  0  0  0  0  0  0
   -1.0784    0.3901    0.8039 C   0  0  1  0  0  0  0  0  0  0  0  0
    0.3051   -0.5643    0.6309 C   0  0  2  0  0  0  0  0  0  0  0  0
    0.8490   -0.2760    2.1303 C   0  0  0  0  0  0  0  0  0  0  0  0
    2.1462   -1.0620    1.9622 C   0  0  0  0  0  0  0  0  0  0  0  0
    2.8055   -0.7716    0.6522 C   0  0  0  0  0  0  0  0  0  0  0  0
    4.1201   -1.0346    0.6418 C   0  0  0  0  0  0  0  0  0  0  0  0
    5.0730   -0.0791    0.0523 C   0  0  0  0  0  0  0  0  0  0  0  0
    6.2575   -0.3553   -0.0632 O   0  0  0  0  0  0  0  0  0  0  0  0
    4.6470    1.3066    0.2732 C   0  0  0  0  0  0  0  0  0  0  0  0
    3.3227    1.4706    0.2574 C   0  0  0  0  0  0  0  0  0  0  0  0
    2.4178    0.3753   -0.2525 C   0  0  1  0  0  0  0  0  0  0  0  0
    3.0182   -0.0748   -1.5508 C   0  0  0  0  0  0  0  0  0  0  0  0
    1.0980    0.6730   -0.0186 C   0  0  2  0  0  0  0  0  0  0  0  0
    0.9605    1.7561    0.8609 F   0  0  0  0  0  0  0  0  0  0  0  0
    0.1131    1.3098   -1.1456 C   0  0  1  0  0  0  0  0  0  0  0  0
    1.0625    1.0988   -2.3118 O   0  0  0  0  0  0  0  0  0  0  0  0
   -0.7244   -0.0673   -1.5230 C   0  0  0  0  0  0  0  0  0  0  0  0
   -1.6763   -0.3534   -0.5043 C   0  0  1  0  0  0  0  0  0  0  0  0
   -1.5906   -1.8558   -0.2469 C   0  0  0  0  0  0  0  0  0  0  0  0
   -3.0023    0.1240   -0.3446 C   0  0  2  0  0  0  0  0  0  0  0  0
   -3.2351    1.4141   -0.7457 O   0  0  0  0  0  0  0  0  0  0  0  0
   -3.9239   -0.8907   -0.9637 C   0  0  0  0  0  0  0  0  0  0  0  0
   -3.5265   -1.6358   -1.8756 O   0  0  0  0  0  0  0  0  0  0  0  0
   -5.1500   -1.3836   -0.2612 C   0  0  0  0  0  0  0  0  0  0  0  0
   -6.0674   -0.3503   -0.0965 O   0  0  0  0  0  0  0  0  0  0  0  0
  2  1  1  1
  2  3  1  0
  4  3  1  1
  4  5  1  0
  5  6  1  1
  6  7  1  0
  7  8  1  0
  8  9  2  0
  9 10  1  0
 10 11  2  0
 10 12  1  0
 12 13  2  0
 13 14  1  0
 14 15  1  6
 14 16  1  0
 16 17  1  1
 16 18  1  0
 18 19  1  6
 18 20  1  0
 20 21  1  0
 21 22  1  1
 21 23  1  0
 23 24  1  6
 23 25  1  0
 25 26  2  0
 25 27  1  0
 27 28  1  0
 23  2  1  0
 21  4  1  0
 16  5  1  0
 14  8  1  0
M  END
>  <zinc_id>  (201) 
ZINC000003875332

>  <smiles>  (201) 
C[C@@H]1C[C@H]2[C@@H]3CCC4=CC(=O)C=C[C@]4(C)[C@@]3(F)[C@@H](O)C[C@]2(C)[C@@]1(O)C(=O)CO

$$$$

     RDKit          3D

 31 32  0  0  0  0  0  0  0  0999 V2000
   -7.4112    0.6048   -2.3403 C   0  0  0  0  0  0  0  0  0  0  0  0
   -6.4764   -0.1802   -1.5793 C   0  0  0  0  0  0  0  0  0  0  0  0
   -5.1987   -0.3721   -2.0925 C   0  0  0  0  0  0  0  0  0  0  0  0
   -4.7610    0.1910   -3.3988 C   0  0  0  0  0  0  0  0  0  0  0  0
   -4.1670   -0.7338   -1.2326 C   0  0  0  0  0  0  0  0  0  0  0  0
   -4.4297   -1.2569    0.0264 C   0  0  0  0  0  0  0  0  0  0  0  0
   -5.7038   -1.1326    0.5209 C   0  0  0  0  0  0  0  0  0  0  0  0
   -6.0590   -1.9528    1.7208 C   0  0  0  0  0  0  0  0  0  0  0  0
   -6.6781   -0.4964   -0.2403 C   0  0  0  0  0  0  0  0  0  0  0  0
   -7.9685   -0.4272    0.2372 O   0  0  0  0  0  0  0  0  0  0  0  0
   -3.3734   -2.0901    0.6721 C   0  0  0  0  0  0  0  0  0  0  0  0
   -1.9755   -1.6332    0.2558 C   0  0  0  0  0  0  0  0  0  0  0  0
   -2.0920   -0.2336   -0.2273 C   0  0  1  0  0  0  0  0  0  0  0  0
   -2.8496    0.5289    0.8603 C   0  0  0  0  0  0  0  0  0  0  0  0
   -0.9108    0.5446   -0.5057 C   0  0  0  0  0  0  0  0  0  0  0  0
    0.0550    0.1443   -1.5282 C   0  0  0  0  0  0  0  0  0  0  0  0
    1.2153   -0.5606   -0.8865 C   0  0  0  0  0  0  0  0  0  0  0  0
    1.1278   -0.2525    0.7138 C   0  0  2  0  0  0  0  0  0  0  0  0
    1.3218    1.3579    0.4989 C   0  0  0  0  0  0  0  0  0  0  0  0
    2.7216   -0.5483    0.9283 C   0  0  0  0  0  0  0  0  0  0  0  0
    3.2529    0.5874    1.6423 C   0  0  0  0  0  0  0  0  0  0  0  0
    4.4543    0.8367    2.2387 C   0  0  0  0  0  0  0  0  0  0  0  0
    5.7664    0.9038    1.2809 C   0  0  2  0  0  0  0  0  0  0  0  0
    5.0012    0.4629   -0.0936 C   0  0  0  0  0  0  0  0  0  0  0  0
    6.1676   -0.6343    1.6634 C   0  0  0  0  0  0  0  0  0  0  0  0
    6.7418   -1.2613    0.4397 C   0  0  0  0  0  0  0  0  0  0  0  0
    7.5928   -0.3286   -0.3781 C   0  0  0  0  0  0  0  0  0  0  0  0
    8.9591   -0.2817    0.2473 C   0  0  0  0  0  0  0  0  0  0  0  0
    9.4956   -1.6473    0.5784 C   0  0  0  0  0  0  0  0  0  0  0  0
    9.0373    0.6669    1.4113 C   0  0  0  0  0  0  0  0  0  0  0  0
   -2.8559   -0.2844   -1.4333 O   0  0  0  0  0  0  0  0  0  0  0  0
  1  2  1  0
  2  3  2  0
  3  4  1  0
  3  5  1  0
  5  6  2  0
  6  7  1  0
  7  8  1  0
  7  9  2  0
  9 10  1  0
  6 11  1  0
 11 12  1  0
 12 13  1  0
 13 14  1  1
 13 15  1  0
 15 16  1  0
 16 17  1  0
 18 17  1  6
 18 19  1  0
 18 20  1  0
 20 21  1  0
 21 22  1  0
 23 22  1  1
 23 24  1  0
 23 25  1  0
 25 26  1  0
 26 27  1  0
 27 28  1  0
 28 29  1  0
 28 30  1  0
 13 31  1  0
  9  2  1  0
 31  5  1  0
M  END
>  <zinc_id>  (202) 
ZINC000004095858

>  <smiles>  (202) 
Cc1c(C)c2c(c(C)c1O)CC[C@@](C)(CCC[C@H](C)CCC[C@H](C)CCCC(C)C)O2

$$$$

     RDKit          3D

 32 34  0  0  0  0  0  0  0  0999 V2000
   -6.8474    3.4937    0.1870 N   0  0  0  0  0  0  0  0  0  0  0  0
   -6.4198    2.4262    0.2639 C   0  0  0  0  0  0  0  0  0  0  0  0
   -7.2187    1.3355    0.3495 N   0  0  0  0  0  0  0  0  0  0  0  0
   -6.7657    0.1042    0.6235 C   0  0  0  0  0  0  0  0  0  0  0  0
   -7.6258   -0.9885    0.4741 O   0  0  0  0  0  0  0  0  0  0  0  0
   -5.4062   -0.1433    0.4812 C   0  0  0  0  0  0  0  0  0  0  0  0
   -4.8764   -1.3671    0.4522 N   0  0  0  0  0  0  0  0  0  0  0  0
   -3.6765   -1.5846   -0.1412 C   0  0  0  0  0  0  0  0  0  0  0  0
   -3.1892   -2.9681   -0.1424 C   0  0  0  0  0  0  0  0  0  0  0  0
   -1.8320   -3.1400   -0.5398 N   0  0  0  0  0  0  0  0  0  0  0  0
   -0.7602   -2.2578   -0.2932 C   0  0  0  0  0  0  0  0  0  0  0  0
   -0.1122   -1.7637   -1.4209 C   0  0  0  0  0  0  0  0  0  0  0  0
    0.8322   -0.7722   -1.2117 C   0  0  0  0  0  0  0  0  0  0  0  0
    1.6312   -0.8592   -0.0822 C   0  0  0  0  0  0  0  0  0  0  0  0
    2.9727   -0.3362   -0.0497 C   0  0  0  0  0  0  0  0  0  0  0  0
    3.9217   -1.1714   -0.1502 O   0  0  0  0  0  0  0  0  0  0  0  0
    3.3301    1.0251    0.0657 N   0  0  0  0  0  0  0  0  0  0  0  0
    4.5021    1.2791    1.0920 C   0  0  1  0  0  0  0  0  0  0  0  0
    5.5216    0.2782    0.2718 C   0  0  0  0  0  0  0  0  0  0  0  0
    6.8281    0.3489    1.0374 C   0  0  0  0  0  0  0  0  0  0  0  0
    7.8850   -0.1288    0.1263 C   0  0  0  0  0  0  0  0  0  0  0  0
    8.8757    0.5595   -0.2240 O   0  0  0  0  0  0  0  0  0  0  0  0
    7.6361   -1.2725   -0.6378 O   0  0  0  0  0  0  0  0  0  0  0  0
    5.0222    2.5730    0.2740 C   0  0  0  0  0  0  0  0  0  0  0  0
    4.1838    3.5055    0.4211 O   0  0  0  0  0  0  0  0  0  0  0  0
    6.3772    2.8157    0.4837 O   0  0  0  0  0  0  0  0  0  0  0  0
    1.2990   -1.8035    0.8765 C   0  0  0  0  0  0  0  0  0  0  0  0
    0.0661   -2.4224    0.8130 C   0  0  0  0  0  0  0  0  0  0  0  0
   -3.1288   -0.5460   -0.8556 C   0  0  0  0  0  0  0  0  0  0  0  0
   -3.3524    0.6959   -0.3600 N   0  0  0  0  0  0  0  0  0  0  0  0
   -4.5800    0.9254    0.1692 C   0  0  0  0  0  0  0  0  0  0  0  0
   -5.0936    2.1589    0.2041 N   0  0  0  0  0  0  0  0  0  0  0  0
  1  2  1  0
  2  3  2  0
  3  4  1  0
  4  5  1  0
  4  6  2  0
  6  7  1  0
  7  8  2  0
  8  9  1  0
  9 10  1  0
 10 11  1  0
 11 12  2  0
 12 13  1  0
 13 14  2  0
 14 15  1  0
 15 16  2  0
 15 17  1  0
 18 17  1  6
 18 19  1  0
 19 20  1  0
 20 21  1  0
 21 22  2  0
 21 23  1  0
 18 24  1  0
 24 25  2  0
 24 26  1  0
 14 27  1  0
 27 28  2  0
  8 29  1  0
 29 30  2  0
 30 31  1  0
 31 32  2  0
 32  2  1  0
 31  6  1  0
 28 11  1  0
M  END
>  <zinc_id>  (203) 
ZINC000008577218

>  <smiles>  (203) 
Nc1nc(O)c2nc(CNc3ccc(C(=O)N[C@@H](CCC(=O)O)C(=O)O)cc3)cnc2n1

$$$$

     RDKit          3D

 36 40  0  0  0  0  0  0  0  0999 V2000
    8.8488    0.3362    0.8289 C   0  0  0  0  0  0  0  0  0  0  0  0
    8.6627    0.5469    0.1210 C   0  0  0  0  0  0  0  0  0  0  0  0
    9.6407    0.8637   -0.6301 O   0  0  0  0  0  0  0  0  0  0  0  0
    7.3520    0.3188   -0.4321 N   0  0  0  0  0  0  0  0  0  0  0  0
    7.0688    0.3827   -1.8366 C   0  0  0  0  0  0  0  0  0  0  0  0
    6.1937   -0.7212   -2.3495 C   0  0  0  0  0  0  0  0  0  0  0  0
    5.3270   -1.1949   -1.2711 N   0  0  0  0  0  0  0  0  0  0  0  0
    4.1811   -0.3657   -1.0443 C   0  0  0  0  0  0  0  0  0  0  0  0
    3.4086    0.0843   -2.1081 C   0  0  0  0  0  0  0  0  0  0  0  0
    2.0620    0.3447   -1.8793 C   0  0  0  0  0  0  0  0  0  0  0  0
    1.4601    0.0227   -0.6672 C   0  0  0  0  0  0  0  0  0  0  0  0
    0.2320   -0.5944   -0.6591 O   0  0  0  0  0  0  0  0  0  0  0  0
   -0.2982   -1.4331    0.2946 C   0  0  0  0  0  0  0  0  0  0  0  0
   -1.0645   -0.4916    1.4102 C   0  0  2  0  0  0  0  0  0  0  0  0
   -2.2904   -1.5885    1.5391 C   0  0  0  0  0  0  0  0  0  0  0  0
   -3.0707   -1.2520    0.4639 O   0  0  0  0  0  0  0  0  0  0  0  0
   -3.0538    0.1431    0.6687 C   0  0  2  0  0  0  0  0  0  0  0  0
   -3.2988    0.3365    2.1322 C   0  0  0  0  0  0  0  0  0  0  0  0
   -4.6395    0.0708    2.5602 N   0  0  0  0  0  0  0  0  0  0  0  0
   -5.2806    0.8935    3.4285 C   0  0  0  0  0  0  0  0  0  0  0  0
   -6.4951    0.3611    3.7845 C   0  0  0  0  0  0  0  0  0  0  0  0
   -6.5426   -0.8599    3.2144 N   0  0  0  0  0  0  0  0  0  0  0  0
   -5.3478   -1.0785    2.6337 C   0  0  0  0  0  0  0  0  0  0  0  0
   -4.0280    0.7506   -0.2019 C   0  0  0  0  0  0  0  0  0  0  0  0
   -5.3543    1.0125    0.1289 C   0  0  0  0  0  0  0  0  0  0  0  0
   -6.3890    0.6735   -0.7377 C   0  0  0  0  0  0  0  0  0  0  0  0
   -6.0861    0.2480   -2.0276 C   0  0  0  0  0  0  0  0  0  0  0  0
   -7.0160   -1.0213   -2.8203 Cl  0  0  0  0  0  0  0  0  0  0  0  0
   -4.8282    0.6345   -2.4811 C   0  0  0  0  0  0  0  0  0  0  0  0
   -3.7809    0.7562   -1.5717 C   0  0  0  0  0  0  0  0  0  0  0  0
   -2.2713    1.5631   -1.9825 Cl  0  0  0  0  0  0  0  0  0  0  0  0
   -1.7520    0.3462    0.3461 O   0  0  0  0  0  0  0  0  0  0  0  0
    2.3110    0.0652    0.4314 C   0  0  0  0  0  0  0  0  0  0  0  0
    3.6730   -0.1135    0.2172 C   0  0  0  0  0  0  0  0  0  0  0  0
    6.0406   -1.5921   -0.0556 C   0  0  0  0  0  0  0  0  0  0  0  0
    6.4257   -0.2449    0.5526 C   0  0  0  0  0  0  0  0  0  0  0  0
  1  2  1  0
  2  3  2  0
  2  4  1  0
  4  5  1  0
  5  6  1  0
  6  7  1  0
  7  8  1  0
  8  9  2  0
  9 10  1  0
 10 11  2  0
 11 12  1  0
 12 13  1  0
 14 13  1  6
 14 15  1  0
 15 16  1  0
 16 17  1  0
 17 18  1  1
 18 19  1  0
 19 20  1  0
 20 21  2  0
 21 22  1  0
 22 23  2  0
 17 24  1  0
 24 25  2  0
 25 26  1  0
 26 27  2  0
 27 28  1  0
 27 29  1  0
 29 30  2  0
 30 31  1  0
 17 32  1  0
 11 33  1  0
 33 34  2  0
  7 35  1  0
 35 36  1  0
 36  4  1  0
 34  8  1  0
 32 14  1  0
 23 19  1  0
 30 24  1  0
M  END
>  <zinc_id>  (204) 
ZINC000000643143

>  <smiles>  (204) 
CC(=O)N1CCN(c2ccc(OC[C@@H]3CO[C@](Cn4ccnc4)(c4ccc(Cl)cc4Cl)O3)cc2)CC1

$$$$

     RDKit          3D

 30 32  0  0  0  0  0  0  0  0999 V2000
   -4.2034   -2.0407    0.5516 C   0  0  0  0  0  0  0  0  0  0  0  0
   -4.5004   -0.9128    0.2464 C   0  0  0  0  0  0  0  0  0  0  0  0
   -3.9486    0.3523    0.7602 C   0  0  0  0  0  0  0  0  0  0  0  0
   -2.7261    0.2130    1.2109 C   0  0  0  0  0  0  0  0  0  0  0  0
   -1.9310   -1.0149    0.9487 C   0  0  0  0  0  0  0  0  0  0  0  0
   -1.1527   -0.8933   -0.0506 C   0  0  0  0  0  0  0  0  0  0  0  0
   -1.6368   -0.4276   -1.3627 C   0  0  0  0  0  0  0  0  0  0  0  0
   -0.8250    0.5967   -2.0431 C   0  0  0  0  0  0  0  0  0  0  0  0
    0.6082    0.2241   -1.8913 C   0  0  0  0  0  0  0  0  0  0  0  0
    0.9033    0.0632   -0.4873 C   0  0  1  0  0  0  0  0  0  0  0  0
    0.4217    0.8878    0.5745 C   0  0  0  0  0  0  0  0  0  0  0  0
    0.3406   -1.4425   -0.1558 C   0  0  1  0  0  0  0  0  0  0  0  0
    0.7832   -1.2638    1.4065 C   0  0  0  0  0  0  0  0  0  0  0  0
    2.1365   -0.6531    1.3069 C   0  0  0  0  0  0  0  0  0  0  0  0
    2.3930   -0.4937   -0.2870 C   0  0  2  0  0  0  0  0  0  0  0  0
    3.2426    0.9688   -0.1117 C   0  0  2  0  0  0  0  0  0  0  0  0
    2.2205    2.0168   -0.7959 C   0  0  0  0  0  0  0  0  0  0  0  0
    3.9467    0.7421   -1.5639 C   0  0  0  0  0  0  0  0  0  0  0  0
    5.1220   -0.1815   -1.2823 C   0  0  0  0  0  0  0  0  0  0  0  0
    5.7236    0.6032   -0.1484 C   0  0  0  0  0  0  0  0  0  0  0  0
    6.8795   -0.0631    0.5159 C   0  0  0  0  0  0  0  0  0  0  0  0
    7.5266    1.0969    1.2586 C   0  0  0  0  0  0  0  0  0  0  0  0
    7.7586   -0.6635   -0.5325 C   0  0  0  0  0  0  0  0  0  0  0  0
    6.3245   -1.0053    1.3851 O   0  0  0  0  0  0  0  0  0  0  0  0
   -4.4487    1.5079   -0.0558 C   0  0  0  0  0  0  0  0  0  0  0  0
   -5.9988    1.7452    0.4685 C   0  0  1  0  0  0  0  0  0  0  0  0
   -6.4889    2.0621   -0.9356 O   0  0  0  0  0  0  0  0  0  0  0  0
   -6.5195    0.1883    0.3618 C   0  0  0  0  0  0  0  0  0  0  0  0
   -5.5978   -0.4472   -0.8425 C   0  0  2  0  0  0  0  0  0  0  0  0
   -6.3534   -1.7652   -0.7737 O   0  0  0  0  0  0  0  0  0  0  0  0
  1  2  2  0
  2  3  1  0
  3  4  2  0
  4  5  1  0
  5  6  2  0
  6  7  1  0
  7  8  1  0
  8  9  1  0
  9 10  1  0
 10 11  1  1
 10 12  1  0
 12 13  1  1
 13 14  1  0
 15 14  1  1
 15 16  1  0
 16 17  1  6
 16 18  1  0
 18 19  1  0
 19 20  1  0
 20 21  1  0
 21 22  1  0
 21 23  1  0
 21 24  1  0
  3 25  1  0
 25 26  1  0
 26 27  1  6
 26 28  1  0
 28 29  1  0
 29 30  1  1
 29  2  1  0
 12  6  1  0
 15 10  1  0
M  END
>  <zinc_id>  (205) 
ZINC000100015048

>  <smiles>  (205) 
C=C1/C(=C\C=C2/CCC[C@@]3(C)[C@H]2CC[C@@H]3[C@H](C)CCCC(C)(C)O)C[C@@H](O)C[C@@H]1O

$$$$

     RDKit          3D

 28 30  0  0  0  0  0  0  0  0999 V2000
   -2.5979    1.4081    0.5434 C   0  0  0  0  0  0  0  0  0  0  0  0
   -3.6271    0.8867    0.7664 C   0  0  0  0  0  0  0  0  0  0  0  0
   -4.7981    1.4766    1.4748 C   0  0  0  0  0  0  0  0  0  0  0  0
   -5.9672    1.7923    0.6370 C   0  0  0  0  0  0  0  0  0  0  0  0
   -5.8160    0.9737   -0.7846 C   0  0  2  0  0  0  0  0  0  0  0  0
   -7.3008    0.6547   -0.8050 O   0  0  0  0  0  0  0  0  0  0  0  0
   -5.4529   -0.4624   -0.0523 C   0  0  0  0  0  0  0  0  0  0  0  0
   -3.9577   -0.3173   -0.0053 C   0  0  0  0  0  0  0  0  0  0  0  0
   -3.0607   -0.9864   -0.7328 C   0  0  0  0  0  0  0  0  0  0  0  0
   -1.6615   -0.6609   -0.3476 C   0  0  0  0  0  0  0  0  0  0  0  0
   -0.9688   -1.7912   -0.2947 C   0  0  0  0  0  0  0  0  0  0  0  0
   -0.8623   -2.7725   -1.3795 C   0  0  0  0  0  0  0  0  0  0  0  0
    0.5390   -3.2509   -1.6458 C   0  0  0  0  0  0  0  0  0  0  0  0
    1.7139   -2.5086   -1.1791 C   0  0  0  0  0  0  0  0  0  0  0  0
    1.2404   -1.2000   -0.6120 C   0  0  1  0  0  0  0  0  0  0  0  0
    0.5766   -0.5158   -1.6449 C   0  0  0  0  0  0  0  0  0  0  0  0
    0.3852   -1.8771    0.5795 C   0  0  1  0  0  0  0  0  0  0  0  0
    0.2372   -0.4482    1.3558 C   0  0  0  0  0  0  0  0  0  0  0  0
    1.5537   -0.0002    1.5018 C   0  0  0  0  0  0  0  0  0  0  0  0
    2.3974   -0.4424    0.1913 C   0  0  2  0  0  0  0  0  0  0  0  0
    2.1707    1.0504   -0.6077 C   0  0  2  0  0  0  0  0  0  0  0  0
    3.5657    0.8196   -1.3986 C   0  0  0  0  0  0  0  0  0  0  0  0
    2.7699    1.9463    0.5866 C   0  0  0  0  0  0  0  0  0  0  0  0
    4.2128    2.0322    0.6154 C   0  0  0  0  0  0  0  0  0  0  0  0
    4.8000    0.7340    1.0710 C   0  0  0  0  0  0  0  0  0  0  0  0
    6.2987    0.6984    1.0793 C   0  0  0  0  0  0  0  0  0  0  0  0
    6.9740    1.3269   -0.0783 C   0  0  0  0  0  0  0  0  0  0  0  0
    6.6356   -0.7884    1.1660 C   0  0  0  0  0  0  0  0  0  0  0  0
  1  2  2  0
  2  3  1  0
  3  4  1  0
  4  5  1  0
  5  6  1  1
  5  7  1  0
  7  8  1  0
  8  9  2  0
  9 10  1  0
 10 11  2  0
 11 12  1  0
 12 13  1  0
 13 14  1  0
 14 15  1  0
 15 16  1  6
 15 17  1  0
 17 18  1  1
 18 19  1  0
 20 19  1  1
 20 21  1  0
 21 22  1  6
 21 23  1  0
 23 24  1  0
 24 25  1  0
 25 26  1  0
 26 27  1  0
 26 28  1  0
  8  2  1  0
 17 11  1  0
 20 15  1  0
M  END
>  <zinc_id>  (206) 
ZINC000004474460

>  <smiles>  (206) 
C=C1CC[C@H](O)C/C1=C/C=C1\CCC[C@@]2(C)[C@H]1CC[C@@H]2[C@H](C)CCCC(C)C

$$$$

     RDKit          3D

 29 31  0  0  0  0  0  0  0  0999 V2000
   -4.7254    1.0906    1.3350 C   0  0  0  0  0  0  0  0  0  0  0  0
   -5.5462    0.8912    0.5897 C   0  0  0  0  0  0  0  0  0  0  0  0
   -6.8500    0.2293    0.9961 C   0  0  0  0  0  0  0  0  0  0  0  0
   -6.3145   -1.1753    1.1447 C   0  0  0  0  0  0  0  0  0  0  0  0
   -6.4807   -1.9412   -0.3019 C   0  0  2  0  0  0  0  0  0  0  0  0
   -5.0144   -2.3419   -0.3143 O   0  0  0  0  0  0  0  0  0  0  0  0
   -6.1757   -0.6236   -1.2434 C   0  0  0  0  0  0  0  0  0  0  0  0
   -5.0852    0.1272   -0.5947 C   0  0  0  0  0  0  0  0  0  0  0  0
   -3.8001   -0.0013   -0.8320 C   0  0  0  0  0  0  0  0  0  0  0  0
   -2.9182   -0.1375    0.3420 C   0  0  0  0  0  0  0  0  0  0  0  0
   -1.6682    0.3354    0.3609 C   0  0  0  0  0  0  0  0  0  0  0  0
   -1.5514    1.5073   -0.5688 C   0  0  0  0  0  0  0  0  0  0  0  0
   -0.9264    1.1552   -1.8768 C   0  0  0  0  0  0  0  0  0  0  0  0
    0.4667    0.6087   -1.6417 C   0  0  0  0  0  0  0  0  0  0  0  0
    0.6077    0.2926   -0.2400 C   0  0  1  0  0  0  0  0  0  0  0  0
    0.7267    1.3416    0.7740 C   0  0  0  0  0  0  0  0  0  0  0  0
   -0.5257   -0.7869    0.2025 C   0  0  1  0  0  0  0  0  0  0  0  0
   -0.0068   -0.6791    1.7427 C   0  0  0  0  0  0  0  0  0  0  0  0
    1.4750   -0.7606    1.6104 C   0  0  0  0  0  0  0  0  0  0  0  0
    1.7561   -0.8073    0.0223 C   0  0  2  0  0  0  0  0  0  0  0  0
    2.9436    0.4013    0.0942 C   0  0  2  0  0  0  0  0  0  0  0  0
    3.1543    0.3563   -1.5150 C   0  0  0  0  0  0  0  0  0  0  0  0
    4.1569   -0.6078    0.3498 C   0  0  0  0  0  0  0  0  0  0  0  0
    5.2479    0.1672    0.4554 C   0  0  0  0  0  0  0  0  0  0  0  0
    6.6552   -0.5934    0.3335 C   0  0  2  0  0  0  0  0  0  0  0  0
    6.7712   -0.7892    1.9521 C   0  0  0  0  0  0  0  0  0  0  0  0
    7.5047    0.8030    0.3740 C   0  0  0  0  0  0  0  0  0  0  0  0
    8.9668    0.3938    0.2374 C   0  0  0  0  0  0  0  0  0  0  0  0
    7.1560    1.5444   -0.8935 C   0  0  0  0  0  0  0  0  0  0  0  0
  1  2  2  0
  2  3  1  0
  3  4  1  0
  4  5  1  0
  5  6  1  1
  5  7  1  0
  7  8  1  0
  8  9  2  0
  9 10  1  0
 10 11  2  0
 11 12  1  0
 12 13  1  0
 13 14  1  0
 14 15  1  0
 15 16  1  1
 15 17  1  0
 17 18  1  1
 18 19  1  0
 20 19  1  1
 20 21  1  0
 21 22  1  6
 21 23  1  0
 23 24  2  0
 25 24  1  1
 25 26  1  0
 25 27  1  0
 27 28  1  0
 27 29  1  0
  8  2  1  0
 17 11  1  0
 20 15  1  0
M  END
>  <zinc_id>  (207) 
ZINC000004629876

>  <smiles>  (207) 
C=C1CC[C@H](O)C/C1=C/C=C1\CCC[C@@]2(C)[C@H]1CC[C@@H]2[C@H](C)/C=C/[C@H](C)C(C)C

$$$$

     RDKit          3D

 17 18  0  0  0  0  0  0  0  0999 V2000
   -3.2942    0.1559   -1.6943 C   0  0  0  0  0  0  0  0  0  0  0  0
   -3.7344    1.1578   -0.4726 C   0  0  2  0  0  0  0  0  0  0  0  0
   -2.6956    2.1863   -0.8338 O   0  0  0  0  0  0  0  0  0  0  0  0
   -2.7407    0.4516    0.7392 C   0  0  1  0  0  0  0  0  0  0  0  0
   -3.3804   -0.8789    0.5091 O   0  0  0  0  0  0  0  0  0  0  0  0
   -1.3729    0.2592   -0.2622 C   0  0  2  0  0  0  0  0  0  0  0  0
   -1.2516   -1.3647   -0.1851 C   0  0  0  0  0  0  0  0  0  0  0  0
   -0.0327   -1.5260   -0.9779 N   0  0  0  0  0  0  0  0  0  0  0  0
    1.1000   -0.8348   -0.4322 C   0  0  0  0  0  0  0  0  0  0  0  0
    2.3163   -0.8674   -0.9860 N   0  0  0  0  0  0  0  0  0  0  0  0
    3.3456   -0.2338   -0.3705 C   0  0  0  0  0  0  0  0  0  0  0  0
    4.3485    0.4703   -1.1150 N   0  0  0  0  0  0  0  0  0  0  0  0
    3.1919   -0.0703    0.9675 N   0  0  0  0  0  0  0  0  0  0  0  0
    1.9706    0.1459    1.5135 C   0  0  0  0  0  0  0  0  0  0  0  0
    1.7690    0.6202    2.6422 O   0  0  0  0  0  0  0  0  0  0  0  0
    0.8750   -0.1293    0.7446 C   0  0  0  0  0  0  0  0  0  0  0  0
   -0.4144    0.4580    0.9544 N   0  0  0  0  0  0  0  0  0  0  0  0
  2  1  1  6
  2  3  1  0
  2  4  1  0
  4  5  1  6
  4  6  1  0
  6  7  1  1
  7  8  1  0
  8  9  1  0
  9 10  1  0
 10 11  2  0
 11 12  1  0
 11 13  1  0
 13 14  1  0
 14 15  2  0
 14 16  1  0
 16 17  1  0
 17  6  1  0
 16  9  2  0
M  END
>  <zinc_id>  (208) 
ZINC000004228257

>  <smiles>  (208) 
C[C@H](O)[C@@H](O)[C@@H]1CNc2nc(N)[nH]c(=O)c2N1

$$$$

     RDKit          3D

 24 26  0  0  0  0  0  0  0  0999 V2000
   -4.5329    2.3909   -1.0077 C   0  0  0  0  0  0  0  0  0  0  0  0
   -3.5997    2.4557   -0.5008 N   0  0  0  0  0  0  0  0  0  0  0  0
   -3.2753    3.8244   -0.1042 C   0  0  0  0  0  0  0  0  0  0  0  0
   -2.5146    1.9016   -1.3079 C   0  0  0  0  0  0  0  0  0  0  0  0
   -1.4803    1.2143   -0.4585 C   0  0  0  0  0  0  0  0  0  0  0  0
   -0.0749    1.6701   -0.8312 C   0  0  0  0  0  0  0  0  0  0  0  0
    0.9390    0.6054   -0.5213 C   0  0  1  0  0  0  0  0  0  0  0  0
    1.0581   -0.3502   -1.6663 C   0  0  0  0  0  0  0  0  0  0  0  0
    1.0508   -1.7275   -1.4738 C   0  0  0  0  0  0  0  0  0  0  0  0
    0.3868   -2.5825   -2.3461 C   0  0  0  0  0  0  0  0  0  0  0  0
   -0.2978   -2.0671   -3.4413 C   0  0  0  0  0  0  0  0  0  0  0  0
   -1.5296   -2.5355   -3.8001 F   0  0  0  0  0  0  0  0  0  0  0  0
    0.1722   -0.8327   -3.8760 C   0  0  0  0  0  0  0  0  0  0  0  0
    0.7621    0.0409   -2.9684 C   0  0  0  0  0  0  0  0  0  0  0  0
    2.1894    1.1436   -0.1802 O   0  0  0  0  0  0  0  0  0  0  0  0
    2.8694   -0.0123    0.2366 C   0  0  0  0  0  0  0  0  0  0  0  0
    1.8516   -0.5964    1.1677 C   0  0  0  0  0  0  0  0  0  0  0  0
    2.0543   -1.0477    2.4652 C   0  0  0  0  0  0  0  0  0  0  0  0
    1.0456   -0.9181    3.4110 C   0  0  0  0  0  0  0  0  0  0  0  0
    1.3169   -1.1832    4.8049 C   0  0  0  0  0  0  0  0  0  0  0  0
    1.4671   -1.0749    5.9571 N   0  0  0  0  0  0  0  0  0  0  0  0
   -0.1358   -0.2893    3.0388 C   0  0  0  0  0  0  0  0  0  0  0  0
   -0.3374    0.0887    1.7404 C   0  0  0  0  0  0  0  0  0  0  0  0
    0.6149   -0.1182    0.7491 C   0  0  0  0  0  0  0  0  0  0  0  0
  1  2  1  0
  2  3  1  0
  2  4  1  0
  4  5  1  0
  5  6  1  0
  7  6  1  6
  7  8  1  0
  8  9  2  0
  9 10  1  0
 10 11  2  0
 11 12  1  0
 11 13  1  0
 13 14  2  0
  7 15  1  0
 15 16  1  0
 16 17  1  0
 17 18  2  0
 18 19  1  0
 19 20  1  0
 20 21  3  0
 19 22  2  0
 22 23  1  0
 23 24  2  0
 24  7  1  0
 14  8  1  0
 24 17  1  0
M  END
>  <zinc_id>  (209) 
ZINC000003800706

>  <smiles>  (209) 
CN(C)CCC[C@@]1(c2ccc(F)cc2)OCc2cc(C#N)ccc21

$$$$

     RDKit          3D

 14 13  0  0  0  0  0  0  0  0999 V2000
   -1.8324    1.7502    0.4256 C   0  0  0  0  0  0  0  0  0  0  0  0
   -2.2763    0.5548   -0.3059 C   0  0  0  0  0  0  0  0  0  0  0  0
   -2.0801    0.5938   -1.7440 C   0  0  0  0  0  0  0  0  0  0  0  0
   -3.6723    0.1664    0.1410 C   0  0  0  0  0  0  0  0  0  0  0  0
   -3.8259   -1.2208    0.1927 O   0  0  0  0  0  0  0  0  0  0  0  0
   -1.4139   -0.6853    0.3675 C   0  0  1  0  0  0  0  0  0  0  0  0
   -1.3786   -1.5144   -0.9149 O   0  0  0  0  0  0  0  0  0  0  0  0
    0.0262   -0.0208    0.0775 C   0  0  0  0  0  0  0  0  0  0  0  0
    0.2485    0.7419   -0.7971 O   0  0  0  0  0  0  0  0  0  0  0  0
    1.0431   -0.1989    1.0232 N   0  0  0  0  0  0  0  0  0  0  0  0
    2.1955   -0.8434    0.6821 C   0  0  0  0  0  0  0  0  0  0  0  0
    3.3143   -0.4021   -0.0526 C   0  0  0  0  0  0  0  0  0  0  0  0
    4.2112    0.5268    0.7159 C   0  0  0  0  0  0  0  0  0  0  0  0
    5.4407    0.5517    0.0699 O   0  0  0  0  0  0  0  0  0  0  0  0
  1  2  1  0
  2  3  1  0
  2  4  1  0
  4  5  1  0
  6  2  1  6
  6  7  1  0
  6  8  1  0
  8  9  2  0
  8 10  1  0
 10 11  1  0
 11 12  1  0
 12 13  1  0
 13 14  1  0
M  END
>  <zinc_id>  (210) 
ZINC000001530303

>  <smiles>  (210) 
CC(C)(CO)[C@@H](O)C(=O)NCCCO

$$$$

     RDKit          3D

  6  5  0  0  0  0  0  0  0  0999 V2000
   -1.6037   -0.9273   -0.4301 C   0  0  0  0  0  0  0  0  0  0  0  0
   -0.7070    0.2505   -0.2160 C   0  0  0  0  0  0  0  0  0  0  0  0
   -1.1591    1.1675    0.5362 O   0  0  0  0  0  0  0  0  0  0  0  0
    0.7067   -0.0670    0.0290 C   0  0  0  0  0  0  0  0  0  0  0  0
    1.0381   -1.1717    0.5556 O   0  0  0  0  0  0  0  0  0  0  0  0
    1.7251    0.7480   -0.4747 O   0  0  0  0  0  0  0  0  0  0  0  0
  1  2  1  0
  2  3  2  0
  2  4  1  0
  4  5  2  0
  4  6  1  0
M  END
>  <zinc_id>  (211) 
ZINC000001532517

>  <smiles>  (211) 
CC(=O)C(=O)O

$$$$

     RDKit          3D

  7  6  0  0  0  0  0  0  0  0999 V2000
   -1.1455   -0.4771    1.3151 O   0  0  0  0  0  0  0  0  0  0  0  0
   -1.3069   -0.1531    0.0996 C   0  0  0  0  0  0  0  0  0  0  0  0
   -1.8136    1.1392   -0.0685 O   0  0  0  0  0  0  0  0  0  0  0  0
   -0.5079   -0.8427   -0.9234 C   0  0  0  0  0  0  0  0  0  0  0  0
    0.8823   -0.2932   -1.0866 C   0  0  0  0  0  0  0  0  0  0  0  0
    1.6169   -0.2957    0.2460 C   0  0  0  0  0  0  0  0  0  0  0  0
    2.2748    0.9225    0.4176 O   0  0  0  0  0  0  0  0  0  0  0  0
  1  2  2  0
  2  3  1  0
  2  4  1  0
  4  5  1  0
  5  6  1  0
  6  7  1  0
M  END
>  <zinc_id>  (212) 
ZINC000001532805

>  <smiles>  (212) 
O=C(O)CCCO

$$$$

     RDKit          3D

 21 24  0  0  0  0  0  0  0  0999 V2000
   -2.6525   -1.5279    0.2558 C   0  0  0  0  0  0  0  0  0  0  0  0
   -2.6587   -0.3142   -0.5478 C   0  0  2  0  0  0  0  0  0  0  0  0
   -2.0451   -0.3641   -1.8800 C   0  0  0  0  0  0  0  0  0  0  0  0
   -0.6327   -0.8688   -1.7321 C   0  0  0  0  0  0  0  0  0  0  0  0
    0.1639    0.2821   -0.8635 C   0  0  1  0  0  0  0  0  0  0  0  0
   -0.5501   -0.2560    0.5925 C   0  0  1  0  0  0  0  0  0  0  0  0
    0.2198    0.8388    1.4872 C   0  0  0  0  0  0  0  0  0  0  0  0
    1.5749    0.2895    1.6212 C   0  0  0  0  0  0  0  0  0  0  0  0
    2.1107   -0.3550    0.6165 C   0  0  0  0  0  0  0  0  0  0  0  0
    3.5390   -0.6983    0.6253 C   0  0  0  0  0  0  0  0  0  0  0  0
    4.3629    0.6250   -0.0066 C   0  0  1  0  0  0  0  0  0  0  0  0
    4.7970   -0.1875   -1.2534 O   0  0  0  0  0  0  0  0  0  0  0  0
    3.0366    1.2808   -0.8094 C   0  0  0  0  0  0  0  0  0  0  0  0
    2.4529    0.1896   -1.6261 C   0  0  0  0  0  0  0  0  0  0  0  0
    1.5245   -0.5986   -0.6976 C   0  0  2  0  0  0  0  0  0  0  0  0
    1.4251   -1.9380   -1.1974 C   0  0  0  0  0  0  0  0  0  0  0  0
   -1.8442    0.8197    0.3144 C   0  0  2  0  0  0  0  0  0  0  0  0
   -2.6680    0.3678    1.6567 C   0  0  0  0  0  0  0  0  0  0  0  0
   -4.0569    0.6019    1.0690 C   0  0  0  0  0  0  0  0  0  0  0  0
   -3.9270    0.4316   -0.4188 C   0  0  0  0  0  0  0  0  0  0  0  0
   -4.1723    1.3815   -1.1539 O   0  0  0  0  0  0  0  0  0  0  0  0
  2  1  1  1
  2  3  1  0
  3  4  1  0
  5  4  1  6
  5  6  1  0
  6  7  1  1
  7  8  1  0
  8  9  2  0
  9 10  1  0
 10 11  1  0
 11 12  1  6
 11 13  1  0
 13 14  1  0
 14 15  1  0
 15 16  1  6
  6 17  1  0
 17 18  1  1
 18 19  1  0
 19 20  1  0
 20 21  2  0
 17  2  1  0
 20  2  1  0
 15  5  1  0
 15  9  1  0
M  END
>  <zinc_id>  (213) 
ZINC000003807917

>  <smiles>  (213) 
C[C@]12CC[C@H]3[C@@H](CC=C4C[C@@H](O)CC[C@@]43C)[C@@H]1CCC2=O

$$$$

     RDKit          3D

 25 26  0  0  0  0  0  0  0  0999 V2000
    0.5025   -0.4099    2.2378 C   0  0  0  0  0  0  0  0  0  0  0  0
    0.9420    0.5996    0.9712 C   0  0  2  0  0  0  0  0  0  0  0  0
    0.3432   -0.3908   -0.1395 N   0  0  0  0  0  0  0  0  0  0  0  0
   -1.1288   -0.5089    0.4942 C   0  0  1  0  0  0  0  0  0  0  0  0
   -1.6803    0.8546   -0.3127 C   0  0  0  0  0  0  0  0  0  0  0  0
   -2.7664    1.3642    0.5930 C   0  0  0  0  0  0  0  0  0  0  0  0
   -4.1415    1.0341    0.1485 C   0  0  0  0  0  0  0  0  0  0  0  0
   -5.1188    1.8558    0.7071 C   0  0  0  0  0  0  0  0  0  0  0  0
   -6.4532    1.6092    0.4748 C   0  0  0  0  0  0  0  0  0  0  0  0
   -6.8419    0.5013   -0.2262 C   0  0  0  0  0  0  0  0  0  0  0  0
   -5.8912   -0.4915   -0.3874 C   0  0  0  0  0  0  0  0  0  0  0  0
   -4.5786   -0.2676   -0.0658 C   0  0  0  0  0  0  0  0  0  0  0  0
   -1.6244   -1.5104   -0.7027 C   0  0  0  0  0  0  0  0  0  0  0  0
   -1.6822   -2.6938   -0.3149 O   0  0  0  0  0  0  0  0  0  0  0  0
   -1.3560   -1.1389   -1.9811 O   0  0  0  0  0  0  0  0  0  0  0  0
    2.4421   -0.0608    0.8472 C   0  0  0  0  0  0  0  0  0  0  0  0
    2.4726   -1.2960    0.9714 O   0  0  0  0  0  0  0  0  0  0  0  0
    3.2614    0.5364   -0.1247 N   0  0  0  0  0  0  0  0  0  0  0  0
    3.6736    1.8562   -0.3023 C   0  0  0  0  0  0  0  0  0  0  0  0
    5.1592    1.6039   -0.5670 C   0  0  0  0  0  0  0  0  0  0  0  0
    4.8750    0.8965   -1.8542 C   0  0  0  0  0  0  0  0  0  0  0  0
    3.9197   -0.3552   -1.2839 C   0  0  1  0  0  0  0  0  0  0  0  0
    5.1504   -0.9272   -0.3545 C   0  0  0  0  0  0  0  0  0  0  0  0
    5.2239   -2.1776   -0.5667 O   0  0  0  0  0  0  0  0  0  0  0  0
    5.2978   -0.4832    0.8990 O   0  0  0  0  0  0  0  0  0  0  0  0
  2  1  1  1
  2  3  1  0
  4  3  1  6
  4  5  1  0
  5  6  1  0
  6  7  1  0
  7  8  2  0
  8  9  1  0
  9 10  2  0
 10 11  1  0
 11 12  2  0
  4 13  1  0
 13 14  2  0
 13 15  1  0
  2 16  1  0
 16 17  2  0
 16 18  1  0
 18 19  1  0
 19 20  1  0
 20 21  1  0
 21 22  1  0
 22 23  1  1
 23 24  2  0
 23 25  1  0
 12  7  1  0
 22 18  1  0
M  END
>  <zinc_id>  (214) 
ZINC000003812851

>  <smiles>  (214) 
C[C@H](N[C@@H](CCc1ccccc1)C(=O)O)C(=O)N1CCC[C@H]1C(=O)O

$$$$

     RDKit          3D

 28 31  0  0  0  0  0  0  0  0999 V2000
   -3.3678    1.3462   -2.2692 C   0  0  0  0  0  0  0  0  0  0  0  0
   -3.3908    0.0513   -1.2957 C   0  0  2  0  0  0  0  0  0  0  0  0
   -4.6460    0.5588   -0.4124 C   0  0  0  0  0  0  0  0  0  0  0  0
   -5.0553   -0.5446    0.5519 C   0  0  0  0  0  0  0  0  0  0  0  0
   -5.5390    0.1059    1.8300 C   0  0  0  0  0  0  0  0  0  0  0  0
   -6.7571   -0.1713    2.0766 O   0  0  0  0  0  0  0  0  0  0  0  0
   -4.8579   -0.0840    3.0518 O   0  0  0  0  0  0  0  0  0  0  0  0
   -2.3252    0.8053   -0.2066 C   0  0  1  0  0  0  0  0  0  0  0  0
   -2.4614   -0.5190    0.7341 C   0  0  0  0  0  0  0  0  0  0  0  0
   -1.2540   -0.6052    1.4918 C   0  0  0  0  0  0  0  0  0  0  0  0
   -0.2772    0.3746    0.6662 C   0  0  1  0  0  0  0  0  0  0  0  0
    0.7605   -0.8962    0.2814 C   0  0  2  0  0  0  0  0  0  0  0  0
    1.3762   -0.9023    1.7575 C   0  0  0  0  0  0  0  0  0  0  0  0
    2.5626   -0.0894    1.8148 C   0  0  0  0  0  0  0  0  0  0  0  0
    3.7317   -0.6770    0.8385 C   0  0  2  0  0  0  0  0  0  0  0  0
    4.2700    0.8429    0.5476 C   0  0  0  0  0  0  0  0  0  0  0  0
    5.7754    0.3037    0.1372 C   0  0  2  0  0  0  0  0  0  0  0  0
    6.0875    1.6087   -0.5815 O   0  0  0  0  0  0  0  0  0  0  0  0
    5.2953   -0.4082   -1.2658 C   0  0  0  0  0  0  0  0  0  0  0  0
    3.9048   -0.1535   -1.5835 C   0  0  0  0  0  0  0  0  0  0  0  0
    2.9425   -0.7224   -0.5921 C   0  0  1  0  0  0  0  0  0  0  0  0
    2.5091   -2.0726   -0.8702 C   0  0  0  0  0  0  0  0  0  0  0  0
    1.7487    0.3220   -0.3554 C   0  0  1  0  0  0  0  0  0  0  0  0
    1.1162    0.1782   -1.8330 C   0  0  0  0  0  0  0  0  0  0  0  0
   -0.2594    1.0937   -1.7976 C   0  0  2  0  0  0  0  0  0  0  0  0
    0.2745    2.0924   -0.7822 O   0  0  0  0  0  0  0  0  0  0  0  0
   -0.9981    0.1170   -0.7432 C   0  0  2  0  0  0  0  0  0  0  0  0
   -1.1656   -1.1952   -1.1910 C   0  0  0  0  0  0  0  0  0  0  0  0
  2  1  1  6
  2  3  1  0
  3  4  1  0
  4  5  1  0
  5  6  2  0
  5  7  1  0
  2  8  1  0
  8  9  1  1
  9 10  1  0
 11 10  1  1
 11 12  1  0
 12 13  1  1
 13 14  1  0
 15 14  1  1
 15 16  1  0
 16 17  1  0
 17 18  1  6
 17 19  1  0
 19 20  1  0
 20 21  1  0
 21 22  1  6
 21 23  1  0
 23 24  1  6
 24 25  1  0
 25 26  1  1
 25 27  1  0
 27 28  1  6
 27  8  1  0
 27 11  1  0
 23 12  1  0
 21 15  1  0
M  END
>  <zinc_id>  (215) 
ZINC000003914810

>  <smiles>  (215) 
C[C@H](CCC(=O)O)[C@H]1CC[C@H]2[C@@H]3CC[C@@H]4C[C@H](O)CC[C@]4(C)[C@H]3C[C@H](O)[C@@]21C

$$$$

     RDKit          3D

  5  4  0  0  0  0  0  0  0  0999 V2000
   -1.4183   -0.8173   -0.2814 O   0  0  0  0  0  0  0  0  0  0  0  0
   -0.5176   -0.0514    0.1773 C   0  0  0  0  0  0  0  0  0  0  0  0
   -0.6956    1.3296    0.0556 O   0  0  0  0  0  0  0  0  0  0  0  0
    0.8550   -0.6087    0.3958 C   0  0  0  0  0  0  0  0  0  0  0  0
    1.7766    0.1479   -0.3473 O   0  0  0  0  0  0  0  0  0  0  0  0
  1  2  2  0
  2  3  1  0
  2  4  1  0
  4  5  1  0
M  END
>  <zinc_id>  (216) 
ZINC000004658557

>  <smiles>  (216) 
O=C(O)CO

$$$$

     RDKit          3D

 34 36  0  0  0  0  0  0  0  0999 V2000
   -8.4040    2.7377    0.0686 N   0  0  0  0  0  0  0  0  0  0  0  0
   -7.4470    1.8464    0.5528 C   0  0  0  0  0  0  0  0  0  0  0  0
   -7.4386    0.5254    0.2499 N   0  0  0  0  0  0  0  0  0  0  0  0
   -6.2769   -0.1719    0.2087 C   0  0  0  0  0  0  0  0  0  0  0  0
   -5.1238    0.4282    0.7037 C   0  0  0  0  0  0  0  0  0  0  0  0
   -5.1430    1.7616    1.0944 C   0  0  0  0  0  0  0  0  0  0  0  0
   -4.0551    2.3174    1.3434 O   0  0  0  0  0  0  0  0  0  0  0  0
   -6.3268    2.4092    1.0513 N   0  0  0  0  0  0  0  0  0  0  0  0
   -3.9137   -0.0723    0.1155 N   0  0  0  0  0  0  0  0  0  0  0  0
   -2.7200    0.6645    0.0856 C   0  0  0  0  0  0  0  0  0  0  0  0
   -2.4657    1.2151   -1.0310 O   0  0  0  0  0  0  0  0  0  0  0  0
   -3.8013   -1.6387    0.3321 C   0  0  2  0  0  0  0  0  0  0  0  0
   -2.4908   -1.7874   -0.6774 C   0  0  0  0  0  0  0  0  0  0  0  0
   -1.5011   -2.2110    0.3098 N   0  0  0  0  0  0  0  0  0  0  0  0
   -0.1239   -1.9096    0.2295 C   0  0  0  0  0  0  0  0  0  0  0  0
    0.6239   -2.0255    1.3944 C   0  0  0  0  0  0  0  0  0  0  0  0
    1.9904   -2.2524    1.3117 C   0  0  0  0  0  0  0  0  0  0  0  0
    2.6945   -2.1361    0.1232 C   0  0  0  0  0  0  0  0  0  0  0  0
    3.9482   -1.3594    0.1290 C   0  0  0  0  0  0  0  0  0  0  0  0
    4.5606   -1.1483   -0.9574 O   0  0  0  0  0  0  0  0  0  0  0  0
    4.6259   -1.0241    1.3008 N   0  0  0  0  0  0  0  0  0  0  0  0
    5.5590    0.2660    1.2631 C   0  0  1  0  0  0  0  0  0  0  0  0
    6.3142   -0.2241   -0.1384 C   0  0  0  0  0  0  0  0  0  0  0  0
    6.9001    1.0345   -0.7120 C   0  0  0  0  0  0  0  0  0  0  0  0
    8.2031    1.4173   -0.0911 C   0  0  0  0  0  0  0  0  0  0  0  0
    8.2640    2.4243    0.6802 O   0  0  0  0  0  0  0  0  0  0  0  0
    9.3211    1.2822   -0.9237 O   0  0  0  0  0  0  0  0  0  0  0  0
    4.4854    1.1810    0.4351 C   0  0  0  0  0  0  0  0  0  0  0  0
    3.3289    1.1580    0.9567 O   0  0  0  0  0  0  0  0  0  0  0  0
    4.9457    2.4485    0.1366 O   0  0  0  0  0  0  0  0  0  0  0  0
    1.9128   -2.0000   -1.0131 C   0  0  0  0  0  0  0  0  0  0  0  0
    0.5383   -1.8085   -0.9633 C   0  0  0  0  0  0  0  0  0  0  0  0
   -4.8550   -1.9333   -0.9163 C   0  0  0  0  0  0  0  0  0  0  0  0
   -6.1293   -1.4144   -0.4373 N   0  0  0  0  0  0  0  0  0  0  0  0
  1  2  1  0
  2  3  2  0
  3  4  1  0
  4  5  2  0
  5  6  1  0
  6  7  2  0
  6  8  1  0
  5  9  1  0
  9 10  1  0
 10 11  2  0
  9 12  1  0
 12 13  1  6
 13 14  1  0
 14 15  1  0
 15 16  2  0
 16 17  1  0
 17 18  2  0
 18 19  1  0
 19 20  2  0
 19 21  1  0
 22 21  1  6
 22 23  1  0
 23 24  1  0
 24 25  1  0
 25 26  2  0
 25 27  1  0
 22 28  1  0
 28 29  2  0
 28 30  1  0
 18 31  1  0
 31 32  2  0
 12 33  1  0
 33 34  1  0
  8  2  1  0
 32 15  1  0
 34  4  1  0
M  END
>  <zinc_id>  (217) 
ZINC000009212428

>  <smiles>  (217) 
Nc1nc2c(c(=O)[nH]1)N(C=O)[C@H](CNc1ccc(C(=O)N[C@@H](CCC(=O)O)C(=O)O)cc1)CN2

$$$$

     RDKit          3D

 17 18  0  0  0  0  0  0  0  0999 V2000
    4.3198   -0.5986    1.3383 C   0  0  0  0  0  0  0  0  0  0  0  0
    3.8471   -0.1370   -0.1655 C   0  0  2  0  0  0  0  0  0  0  0  0
    3.3816    1.2088    0.3374 O   0  0  0  0  0  0  0  0  0  0  0  0
    2.2934   -0.8333    0.0557 C   0  0  2  0  0  0  0  0  0  0  0  0
    2.5843   -1.8387   -1.0144 O   0  0  0  0  0  0  0  0  0  0  0  0
    1.5458    0.2707   -1.0191 C   0  0  1  0  0  0  0  0  0  0  0  0
    0.5389   -0.8468   -1.6578 C   0  0  0  0  0  0  0  0  0  0  0  0
   -0.6493   -0.1110   -2.0941 N   0  0  0  0  0  0  0  0  0  0  0  0
   -1.4764    0.2854   -0.9879 C   0  0  0  0  0  0  0  0  0  0  0  0
   -2.8010    0.1119   -0.9374 N   0  0  0  0  0  0  0  0  0  0  0  0
   -3.5051    0.3531    0.1970 C   0  0  0  0  0  0  0  0  0  0  0  0
   -4.8619   -0.0711    0.2362 N   0  0  0  0  0  0  0  0  0  0  0  0
   -2.7852    0.3593    1.3369 N   0  0  0  0  0  0  0  0  0  0  0  0
   -1.4463    0.5152    1.3697 C   0  0  0  0  0  0  0  0  0  0  0  0
   -0.8313    0.1757    2.4261 O   0  0  0  0  0  0  0  0  0  0  0  0
   -0.7365    0.3976    0.1853 C   0  0  0  0  0  0  0  0  0  0  0  0
    0.5822    0.7586    0.1045 N   0  0  0  0  0  0  0  0  0  0  0  0
  2  1  1  1
  2  3  1  0
  2  4  1  0
  4  5  1  6
  4  6  1  0
  6  7  1  6
  7  8  1  0
  8  9  1  0
  9 10  1  0
 10 11  2  0
 11 12  1  0
 11 13  1  0
 13 14  1  0
 14 15  2  0
 14 16  1  0
 16 17  1  0
 17  6  1  0
 16  9  2  0
M  END
>  <zinc_id>  (218) 
ZINC000013585233

>  <smiles>  (218) 
C[C@H](O)[C@H](O)[C@H]1CNc2nc(N)[nH]c(=O)c2N1

$$$$

     RDKit          3D

 47 50  0  0  0  0  0  0  0  0999 V2000
    5.0373    2.5284   -1.9156 C   0  0  0  0  0  0  0  0  0  0  0  0
    5.0234    2.9729   -0.3400 C   0  0  1  0  0  0  0  0  0  0  0  0
    3.8645    2.0682    0.0011 O   0  0  0  0  0  0  0  0  0  0  0  0
    4.3708    0.7409   -0.5325 C   0  0  2  0  0  0  0  0  0  0  0  0
    3.0417    0.0152   -0.4893 O   0  0  0  0  0  0  0  0  0  0  0  0
    2.2425    0.6833    0.5991 C   0  0  1  0  0  0  0  0  0  0  0  0
    1.0053    1.0442   -0.3858 C   0  0  0  0  0  0  0  0  0  0  0  0
    1.2779    1.3191   -1.6234 C   0  0  0  0  0  0  0  0  0  0  0  0
    0.6752    2.3589   -2.4197 C   0  0  0  0  0  0  0  0  0  0  0  0
    0.3373    3.4509   -1.7315 C   0  0  0  0  0  0  0  0  0  0  0  0
   -0.9136    4.1091   -2.0186 C   0  0  0  0  0  0  0  0  0  0  0  0
   -1.7058    3.7230   -2.9872 C   0  0  0  0  0  0  0  0  0  0  0  0
   -3.1095    3.5219   -2.6764 C   0  0  0  0  0  0  0  0  0  0  0  0
   -3.5647    3.3199   -1.4407 C   0  0  0  0  0  0  0  0  0  0  0  0
   -3.9762    1.9504   -1.0788 C   0  0  0  0  0  0  0  0  0  0  0  0
   -5.4475    1.7008   -1.7894 C   0  0  1  0  0  0  0  0  0  0  0  0
   -5.3849    0.0797   -2.0774 C   0  0  0  0  0  0  0  0  0  0  0  0
   -6.3653    1.8085   -0.5887 O   0  0  0  0  0  0  0  0  0  0  0  0
   -6.4275    1.3263    0.5801 C   0  0  0  0  0  0  0  0  0  0  0  0
   -7.3498    1.7441    1.3548 O   0  0  0  0  0  0  0  0  0  0  0  0
   -6.1828   -0.1215    0.3977 C   0  0  0  0  0  0  0  0  0  0  0  0
   -4.9274   -0.1613    0.2506 C   0  0  0  0  0  0  0  0  0  0  0  0
   -3.9264   -0.2092    1.5222 C   0  0  1  0  0  0  0  0  0  0  0  0
   -5.0932   -0.3433    2.7041 O   0  0  0  0  0  0  0  0  0  0  0  0
   -4.4821   -1.7208    2.0058 C   0  0  2  0  0  0  0  0  0  0  0  0
   -3.2174   -1.8106    3.0826 C   0  0  0  0  0  0  0  0  0  0  0  0
   -2.2503   -2.1936    1.7968 C   0  0  2  0  0  0  0  0  0  0  0  0
   -2.6864   -3.6406    1.9200 O   0  0  0  0  0  0  0  0  0  0  0  0
   -0.8719   -2.4345    2.6781 C   0  0  0  0  0  0  0  0  0  0  0  0
    0.0035   -2.8621    1.5102 C   0  0  2  0  0  0  0  0  0  0  0  0
   -0.5396   -4.1668    1.3023 O   0  0  0  0  0  0  0  0  0  0  0  0
    1.4280   -3.1874    1.7790 C   0  0  0  0  0  0  0  0  0  0  0  0
    1.5399   -3.8177    0.2542 C   0  0  2  0  0  0  0  0  0  0  0  0
    2.9464   -4.3167    0.4919 O   0  0  0  0  0  0  0  0  0  0  0  0
    2.1561   -2.4191   -0.4668 C   0  0  1  0  0  0  0  0  0  0  0  0
    1.7108   -2.9493   -1.8900 C   0  0  0  0  0  0  0  0  0  0  0  0
    2.3615   -3.9483   -2.2890 O   0  0  0  0  0  0  0  0  0  0  0  0
    0.5763   -2.5568   -2.5035 O   0  0  0  0  0  0  0  0  0  0  0  0
    0.8591   -1.3409   -0.2289 C   0  0  2  0  0  0  0  0  0  0  0  0
    1.5451   -0.7204    1.1267 C   0  0  0  0  0  0  0  0  0  0  0  0
   -0.1328   -2.2072    0.4508 O   0  0  0  0  0  0  0  0  0  0  0  0
    4.7667    0.1340    1.0356 C   0  0  1  0  0  0  0  0  0  0  0  0
    5.9448   -0.5630    0.4315 O   0  0  0  0  0  0  0  0  0  0  0  0
    5.5830    1.5355    1.5390 C   0  0  1  0  0  0  0  0  0  0  0  0
    6.8564    0.8266    2.0657 N   0  0  0  0  0  0  0  0  0  0  0  0
    6.2527    1.8356    0.0191 C   0  0  2  0  0  0  0  0  0  0  0  0
    7.1491    2.8937    0.5740 O   0  0  0  0  0  0  0  0  0  0  0  0
  2  1  1  6
  2  3  1  0
  3  4  1  0
  4  5  1  1
  6  5  1  6
  6  7  1  0
  7  8  2  0
  8  9  1  0
  9 10  2  0
 10 11  1  0
 11 12  2  0
 12 13  1  0
 13 14  2  0
 14 15  1  0
 15 16  1  0
 16 17  1  1
 16 18  1  0
 18 19  1  0
 19 20  2  0
 19 21  1  0
 21 22  2  0
 23 22  1  6
 23 24  1  0
 25 24  1  1
 25 26  1  0
 26 27  1  0
 27 28  1  1
 27 29  1  0
 29 30  1  0
 30 31  1  6
 30 32  1  0
 32 33  1  0
 33 34  1  1
 33 35  1  0
 35 36  1  6
 36 37  2  0
 36 38  1  0
 35 39  1  0
 39 40  1  1
 39 41  1  0
  4 42  1  0
 42 43  1  6
 42 44  1  0
 44 45  1  1
 44 46  1  0
 46 47  1  1
 46  2  1  0
 40  6  1  0
 25 23  1  0
 41 30  1  0
M  END
>  <zinc_id>  (219) 
ZINC000169621220

>  <smiles>  (219) 
C[C@@H]1C/C=C/C=C/C=C/C=C/[C@H](O[C@H]2O[C@H](C)[C@@H](O)[C@H](N)[C@@H]2O)C[C@@H]2O[C@](O)(C[C@@H](O)C[C@H]3O[C@@H]3/C=C/C(=O)O1)C[C@H](O)[C@H]2C(=O)O

$$$$

     RDKit          3D

 14 15  0  0  0  0  0  0  0  0999 V2000
    2.8667    1.3714    0.7630 C   0  0  0  0  0  0  0  0  0  0  0  0
    2.1549    0.3784   -0.0351 N   0  0  0  0  0  0  0  0  0  0  0  0
    2.6050   -0.8292   -0.4562 C   0  0  0  0  0  0  0  0  0  0  0  0
    1.5586   -1.6890   -0.4641 N   0  0  0  0  0  0  0  0  0  0  0  0
    0.4058   -0.9965   -0.3020 C   0  0  0  0  0  0  0  0  0  0  0  0
    0.8166    0.3262   -0.2449 C   0  0  0  0  0  0  0  0  0  0  0  0
   -0.1467    1.2989   -0.2270 C   0  0  0  0  0  0  0  0  0  0  0  0
    0.2366    2.4999   -0.1655 O   0  0  0  0  0  0  0  0  0  0  0  0
   -1.4157    0.9117   -0.0131 N   0  0  0  0  0  0  0  0  0  0  0  0
   -2.4622    1.9211   -0.1342 C   0  0  0  0  0  0  0  0  0  0  0  0
   -1.7327   -0.3800    0.2532 C   0  0  0  0  0  0  0  0  0  0  0  0
   -2.9399   -0.7585    0.3534 O   0  0  0  0  0  0  0  0  0  0  0  0
   -0.8524   -1.3843    0.0173 N   0  0  0  0  0  0  0  0  0  0  0  0
   -1.0947   -2.6701    0.6551 C   0  0  0  0  0  0  0  0  0  0  0  0
  1  2  1  0
  2  3  1  0
  3  4  2  0
  4  5  1  0
  5  6  2  0
  6  7  1  0
  7  8  2  0
  7  9  1  0
  9 10  1  0
  9 11  1  0
 11 12  2  0
 11 13  1  0
 13 14  1  0
  6  2  1  0
 13  5  1  0
M  END
>  <zinc_id>  (220) 
ZINC000000001084

>  <smiles>  (220) 
Cn1c(=O)c2c(ncn2C)n(C)c1=O

$$$$

     RDKit          3D

 18 19  0  0  0  0  0  0  0  0999 V2000
    1.4702    1.1555   -0.1385 C   0  0  0  0  0  0  0  0  0  0  0  0
    1.6458   -0.1389    0.5946 C   0  0  0  0  0  0  0  0  0  0  0  0
    2.8991   -0.6856    0.8370 C   0  0  0  0  0  0  0  0  0  0  0  0
    4.2433   -0.2344    0.4102 C   0  0  0  0  0  0  0  0  0  0  0  0
    4.1359    0.7988   -0.6654 C   0  0  0  0  0  0  0  0  0  0  0  0
    5.3137    0.7355   -1.4274 O   0  0  0  0  0  0  0  0  0  0  0  0
    2.4694   -2.0303    1.8098 S   0  0  0  0  0  0  0  0  0  0  0  0
    0.7681   -1.9287    1.5881 C   0  0  0  0  0  0  0  0  0  0  0  0
    0.7086   -1.1128    0.5027 N   0  0  0  0  0  0  0  0  0  0  0  0
   -0.5004   -1.1200   -0.3220 C   0  0  0  0  0  0  0  0  0  0  0  0
   -1.4656   -0.0880    0.0655 C   0  0  0  0  0  0  0  0  0  0  0  0
   -1.7926    0.2357    1.3739 C   0  0  0  0  0  0  0  0  0  0  0  0
   -3.0327    0.6538    1.6264 N   0  0  0  0  0  0  0  0  0  0  0  0
   -3.8968    1.0166    0.6662 C   0  0  0  0  0  0  0  0  0  0  0  0
   -5.3509    0.9824    1.0180 C   0  0  0  0  0  0  0  0  0  0  0  0
   -3.4740    0.9897   -0.6173 N   0  0  0  0  0  0  0  0  0  0  0  0
   -2.2963    0.4238   -0.9236 C   0  0  0  0  0  0  0  0  0  0  0  0
   -1.8446    0.3469   -2.2809 N   0  0  0  0  0  0  0  0  0  0  0  0
  1  2  1  0
  2  3  2  0
  3  4  1  0
  4  5  1  0
  5  6  1  0
  3  7  1  0
  7  8  1  0
  8  9  2  0
  9 10  1  0
 10 11  1  0
 11 12  2  0
 12 13  1  0
 13 14  2  0
 14 15  1  0
 14 16  1  0
 16 17  2  0
 17 18  1  0
  9  2  1  0
 17 11  1  0
M  CHG  1   9   1
M  END
>  <zinc_id>  (221) 
ZINC000000049153

>  <smiles>  (221) 
Cc1ncc(C[n+]2csc(CCO)c2C)c(N)n1

$$$$

     RDKit          3D

  5  5  0  0  0  0  0  0  0  0999 V2000
    2.3037   -0.1586   -0.0819 Cl  0  0  0  0  0  0  0  0  0  0  0  0
    0.7530    0.7306   -0.1870 C   0  0  0  0  0  0  0  0  0  0  0  0
   -0.2121   -0.5552    0.4632 C   0  0  2  0  0  0  0  0  0  0  0  0
   -1.3159   -0.4411   -0.7871 C   0  0  0  0  0  0  0  0  0  0  0  0
   -1.5286    0.4242    0.5928 O   0  0  0  0  0  0  0  0  0  0  0  0
  1  2  1  0
  3  2  1  6
  3  4  1  0
  4  5  1  0
  5  3  1  0
M  END
>  <zinc_id>  (222) 
ZINC000001487602

>  <smiles>  (222) 
ClC[C@@H]1CO1

$$$$

     RDKit          3D

 12 12  0  0  0  0  0  0  0  0999 V2000
    3.0769   -0.6423    0.2273 O   0  0  0  0  0  0  0  0  0  0  0  0
    1.9726   -0.3641    0.2915 C   0  0  0  0  0  0  0  0  0  0  0  0
    0.8210   -1.0967   -0.0139 O   0  0  0  0  0  0  0  0  0  0  0  0
   -0.2063   -0.3246    0.8381 C   0  0  2  0  0  0  0  0  0  0  0  0
   -1.5153   -0.4737   -0.3020 C   0  0  1  0  0  0  0  0  0  0  0  0
   -1.1920   -1.8993   -0.7063 O   0  0  0  0  0  0  0  0  0  0  0  0
   -2.5285   -1.0069    0.8822 C   0  0  0  0  0  0  0  0  0  0  0  0
   -3.7388   -0.4000    0.6604 O   0  0  0  0  0  0  0  0  0  0  0  0
    0.2349    1.0782    0.1750 C   0  0  0  0  0  0  0  0  0  0  0  0
   -0.6280    2.1756    0.2526 O   0  0  0  0  0  0  0  0  0  0  0  0
    1.5177    1.0006   -0.0269 C   0  0  0  0  0  0  0  0  0  0  0  0
    2.1858    1.9533   -0.8148 O   0  0  0  0  0  0  0  0  0  0  0  0
  1  2  2  0
  2  3  1  0
  4  3  1  6
  4  5  1  0
  5  6  1  6
  5  7  1  0
  7  8  1  0
  4  9  1  0
  9 10  1  0
  9 11  2  0
 11 12  1  0
 11  2  1  0
M  END
>  <zinc_id>  (223) 
ZINC000100006770

>  <smiles>  (223) 
O=C1O[C@H]([C@@H](O)CO)C(O)=C1O

$$$$

     RDKit          3D

 27 29  0  0  0  0  0  0  0  0999 V2000
   -2.7623    4.3817    1.3686 C   0  0  0  0  0  0  0  0  0  0  0  0
   -2.3877    3.2936    0.5958 C   0  0  0  0  0  0  0  0  0  0  0  0
   -3.1003    2.0972    0.5197 C   0  0  0  0  0  0  0  0  0  0  0  0
   -2.4000    0.9652    0.1097 C   0  0  0  0  0  0  0  0  0  0  0  0
   -2.9840   -0.2488   -0.0202 N   0  0  0  0  0  0  0  0  0  0  0  0
   -2.2465   -1.3751   -0.1946 C   0  0  0  0  0  0  0  0  0  0  0  0
   -2.8355   -2.6133    0.0431 C   0  0  0  0  0  0  0  0  0  0  0  0
   -3.9131   -2.7243    0.7043 O   0  0  0  0  0  0  0  0  0  0  0  0
   -2.0101   -3.6781   -0.1138 N   0  0  0  0  0  0  0  0  0  0  0  0
   -0.6751   -3.5203   -0.2880 C   0  0  0  0  0  0  0  0  0  0  0  0
    0.0308   -4.5646   -0.3501 O   0  0  0  0  0  0  0  0  0  0  0  0
   -0.1132   -2.3850    0.1952 N   0  0  0  0  0  0  0  0  0  0  0  0
   -0.7861   -1.2460   -0.0775 C   0  0  0  0  0  0  0  0  0  0  0  0
   -0.2118   -0.0359    0.1539 N   0  0  0  0  0  0  0  0  0  0  0  0
    0.9670    0.0998    0.9569 C   0  0  0  0  0  0  0  0  0  0  0  0
    2.1918    0.5535   -0.0259 C   0  0  2  0  0  0  0  0  0  0  0  0
    1.9318   -0.5960   -0.9663 O   0  0  0  0  0  0  0  0  0  0  0  0
    3.2890   -0.3636    0.9066 C   0  0  2  0  0  0  0  0  0  0  0  0
    3.4845    0.7676    1.8666 O   0  0  0  0  0  0  0  0  0  0  0  0
    4.7206    0.0590    0.0665 C   0  0  2  0  0  0  0  0  0  0  0  0
    4.1952    1.2612   -0.6755 O   0  0  0  0  0  0  0  0  0  0  0  0
    4.3832   -1.0000   -1.1385 C   0  0  0  0  0  0  0  0  0  0  0  0
    4.7374   -0.4068   -2.3206 O   0  0  0  0  0  0  0  0  0  0  0  0
   -1.0312    1.0055   -0.1412 C   0  0  0  0  0  0  0  0  0  0  0  0
   -0.4068    2.2345   -0.2863 C   0  0  0  0  0  0  0  0  0  0  0  0
   -1.1963    3.3691   -0.1216 C   0  0  0  0  0  0  0  0  0  0  0  0
   -0.8712    4.6700   -0.7668 C   0  0  0  0  0  0  0  0  0  0  0  0
  1  2  1  0
  2  3  2  0
  3  4  1  0
  4  5  1  0
  5  6  2  0
  6  7  1  0
  7  8  2  0
  7  9  1  0
  9 10  1  0
 10 11  2  0
 10 12  1  0
 12 13  2  0
 13 14  1  0
 14 15  1  0
 16 15  1  1
 16 17  1  0
 16 18  1  0
 18 19  1  1
 18 20  1  0
 20 21  1  6
 20 22  1  0
 22 23  1  0
 14 24  1  0
 24 25  1  0
 25 26  2  0
 26 27  1  0
 26  2  1  0
 24  4  2  0
 13  6  1  0
M  END
>  <zinc_id>  (224) 
ZINC000002036848

>  <smiles>  (224) 
Cc1cc2nc3c(=O)[nH]c(=O)nc-3n(C[C@H](O)[C@H](O)[C@H](O)CO)c2cc1C

$$$$

     RDKit          3D

 24 26  0  0  0  0  0  0  0  0999 V2000
   -2.2977    1.6772   -1.6970 C   0  0  0  0  0  0  0  0  0  0  0  0
   -2.9936    1.4180   -0.6327 C   0  0  0  0  0  0  0  0  0  0  0  0
   -4.2818    2.1623   -0.7826 C   0  0  0  0  0  0  0  0  0  0  0  0
   -2.0909    1.6231    0.8155 S   0  0  0  0  0  0  0  0  0  0  0  0
   -2.3523   -0.1769    1.3828 C   0  0  2  0  0  0  0  0  0  0  0  0
   -0.7669   -0.7711    1.5027 C   0  0  2  0  0  0  0  0  0  0  0  0
   -0.0954    0.1385    0.3681 N   0  0  0  0  0  0  0  0  0  0  0  0
    1.3404    0.1627    0.4793 C   0  0  0  0  0  0  0  0  0  0  0  0
    1.8205   -0.1710    1.5433 O   0  0  0  0  0  0  0  0  0  0  0  0
    2.0929   -0.2994   -0.9032 C   0  0  2  0  0  0  0  0  0  0  0  0
    2.6189   -1.6930   -0.3026 N   0  0  0  0  0  0  0  0  0  0  0  0
    3.4989    0.4715   -0.5675 C   0  0  0  0  0  0  0  0  0  0  0  0
    4.0247    0.2909    0.6607 C   0  0  0  0  0  0  0  0  0  0  0  0
    5.2459    0.8574    0.9460 C   0  0  0  0  0  0  0  0  0  0  0  0
    6.1618    0.8924   -0.0922 C   0  0  0  0  0  0  0  0  0  0  0  0
    5.7542    0.4679   -1.3518 C   0  0  0  0  0  0  0  0  0  0  0  0
    4.4019    0.2627   -1.6117 C   0  0  0  0  0  0  0  0  0  0  0  0
   -1.3303   -1.8154    0.3865 C   0  0  0  0  0  0  0  0  0  0  0  0
   -0.8628   -2.9050    0.0621 O   0  0  0  0  0  0  0  0  0  0  0  0
   -2.0875   -0.6923   -0.0244 N   0  0  0  0  0  0  0  0  0  0  0  0
   -3.3693   -0.1907   -0.8170 C   0  0  1  0  0  0  0  0  0  0  0  0
   -4.3871   -0.2814    0.4755 C   0  0  0  0  0  0  0  0  0  0  0  0
   -5.5144    0.2459    0.2283 O   0  0  0  0  0  0  0  0  0  0  0  0
   -4.5302   -1.6743    0.6307 O   0  0  0  0  0  0  0  0  0  0  0  0
  1  2  1  0
  2  3  1  0
  2  4  1  0
  5  4  1  6
  5  6  1  0
  6  7  1  6
  7  8  1  0
  8  9  2  0
 10  8  1  1
 10 11  1  0
 10 12  1  0
 12 13  2  0
 13 14  1  0
 14 15  2  0
 15 16  1  0
 16 17  2  0
  6 18  1  0
 18 19  2  0
 18 20  1  0
 20 21  1  0
 21 22  1  1
 22 23  2  0
 22 24  1  0
 21  2  1  0
 20  5  1  0
 17 12  1  0
M  END
>  <zinc_id>  (225) 
ZINC000003830218

>  <smiles>  (225) 
CC1(C)S[C@@H]2[C@H](NC(=O)[C@H](N)c3ccccc3)C(=O)N2[C@H]1C(=O)O

$$$$

     RDKit          3D

 25 29  0  0  0  0  0  0  0  0999 V2000
    4.0686    3.0696   -0.2789 C   0  0  0  0  0  0  0  0  0  0  0  0
    3.7923    2.0433   -0.2292 C   0  0  0  0  0  0  0  0  0  0  0  0
    3.6858    0.5896   -0.2232 C   0  0  2  0  0  0  0  0  0  0  0  0
    4.7847   -0.0170    0.4132 O   0  0  0  0  0  0  0  0  0  0  0  0
    3.7585    0.0014   -1.6336 C   0  0  0  0  0  0  0  0  0  0  0  0
    2.6624   -1.0686   -1.6689 C   0  0  0  0  0  0  0  0  0  0  0  0
    1.5660   -0.0219   -1.0606 C   0  0  1  0  0  0  0  0  0  0  0  0
    0.5421   -1.2300   -0.4521 C   0  0  2  0  0  0  0  0  0  0  0  0
   -0.2858   -1.3352   -1.8268 C   0  0  0  0  0  0  0  0  0  0  0  0
   -1.3730   -2.3411   -1.4572 C   0  0  0  0  0  0  0  0  0  0  0  0
   -2.2601   -1.6045   -0.4984 C   0  0  0  0  0  0  0  0  0  0  0  0
   -3.1932   -0.8203   -1.0332 C   0  0  0  0  0  0  0  0  0  0  0  0
   -3.6668    0.4056   -0.3990 C   0  0  0  0  0  0  0  0  0  0  0  0
   -4.1016    1.5705   -0.8485 O   0  0  0  0  0  0  0  0  0  0  0  0
   -4.4133    2.3531    0.1468 N   0  0  0  0  0  0  0  0  0  0  0  0
   -3.9093    1.8210    1.2841 C   0  0  0  0  0  0  0  0  0  0  0  0
   -3.3461    0.6289    0.9196 C   0  0  0  0  0  0  0  0  0  0  0  0
   -2.4968   -0.3425    1.6360 C   0  0  0  0  0  0  0  0  0  0  0  0
   -1.5796   -1.0950    0.7202 C   0  0  1  0  0  0  0  0  0  0  0  0
   -0.8655   -2.1573    1.4591 C   0  0  0  0  0  0  0  0  0  0  0  0
   -0.4869   -0.0246    0.1546 C   0  0  1  0  0  0  0  0  0  0  0  0
    0.3493    0.0453    1.5575 C   0  0  0  0  0  0  0  0  0  0  0  0
    1.6101    0.8466    1.2267 C   0  0  0  0  0  0  0  0  0  0  0  0
    2.4283    0.0462    0.3225 C   0  0  2  0  0  0  0  0  0  0  0  0
    2.7298   -1.3629    0.7281 C   0  0  0  0  0  0  0  0  0  0  0  0
  1  2  3  0
  3  2  1  6
  3  4  1  0
  3  5  1  0
  5  6  1  0
  7  6  1  6
  7  8  1  0
  8  9  1  6
  9 10  1  0
 10 11  1  0
 11 12  2  0
 12 13  1  0
 13 14  1  0
 14 15  1  0
 15 16  2  0
 16 17  1  0
 17 18  1  0
 18 19  1  0
 19 20  1  1
 19 21  1  0
 21 22  1  1
 22 23  1  0
 23 24  1  0
 24 25  1  1
 24  3  1  0
 24  7  1  0
 21  8  1  0
 19 11  1  0
 17 13  2  0
M  END
>  <zinc_id>  (226) 
ZINC000003881958

>  <smiles>  (226) 
C#C[C@]1(O)CC[C@H]2[C@@H]3CCC4=Cc5oncc5C[C@]4(C)[C@H]3CC[C@@]21C

$$$$

     RDKit          3D

 23 24  0  0  0  0  0  0  0  0999 V2000
    4.1298    1.8831   -0.8154 O   0  0  0  0  0  0  0  0  0  0  0  0
    4.2472    1.0706   -1.0788 C   0  0  0  0  0  0  0  0  0  0  0  0
    3.1271    0.5028   -0.0287 C   0  0  1  0  0  0  0  0  0  0  0  0
    2.0608    0.3299   -1.0901 O   0  0  0  0  0  0  0  0  0  0  0  0
    1.2261   -0.1477   -0.1304 C   0  0  1  0  0  0  0  0  0  0  0  0
    1.1527    0.8661    0.8810 C   0  0  0  0  0  0  0  0  0  0  0  0
    1.7578    0.7649    2.0812 O   0  0  0  0  0  0  0  0  0  0  0  0
    0.0452   -0.5761   -0.3765 O   0  0  0  0  0  0  0  0  0  0  0  0
   -1.0920    0.1956    0.2898 C   0  0  1  0  0  0  0  0  0  0  0  0
   -1.7035    0.2502   -1.0726 O   0  0  0  0  0  0  0  0  0  0  0  0
   -2.9033    1.1115   -0.9572 C   0  0  2  0  0  0  0  0  0  0  0  0
   -2.6410    1.8946    0.4619 C   0  0  0  0  0  0  0  0  0  0  0  0
   -2.8963    3.2129    0.0384 O   0  0  0  0  0  0  0  0  0  0  0  0
   -4.0098   -0.0655   -0.3999 C   0  0  1  0  0  0  0  0  0  0  0  0
   -3.6625   -1.0690   -1.4825 O   0  0  0  0  0  0  0  0  0  0  0  0
   -3.3778   -0.9245    0.9103 C   0  0  2  0  0  0  0  0  0  0  0  0
   -3.0867    0.2384    1.8342 O   0  0  0  0  0  0  0  0  0  0  0  0
   -1.7619   -1.3470    0.6513 C   0  0  1  0  0  0  0  0  0  0  0  0
   -1.8447   -1.9116   -0.7344 O   0  0  0  0  0  0  0  0  0  0  0  0
    1.9852   -1.4967    0.4057 C   0  0  1  0  0  0  0  0  0  0  0  0
    1.5999   -2.3660   -0.7717 O   0  0  0  0  0  0  0  0  0  0  0  0
    3.4821   -1.1296   -0.3365 C   0  0  2  0  0  0  0  0  0  0  0  0
    4.1656   -1.2869    0.9839 O   0  0  0  0  0  0  0  0  0  0  0  0
  1  2  1  0
  3  2  1  6
  3  4  1  0
  4  5  1  0
  5  6  1  1
  6  7  1  0
  5  8  1  0
  9  8  1  6
  9 10  1  0
 10 11  1  0
 11 12  1  1
 12 13  1  0
 11 14  1  0
 14 15  1  6
 14 16  1  0
 16 17  1  1
 16 18  1  0
 18 19  1  6
  5 20  1  0
 20 21  1  6
 20 22  1  0
 22 23  1  1
 22  3  1  0
 18  9  1  0
M  END
>  <zinc_id>  (227) 
ZINC000004217475

>  <smiles>  (227) 
OC[C@H]1O[C@H](O[C@]2(CO)O[C@H](CO)[C@@H](O)[C@@H]2O)[C@H](O)[C@@H](O)[C@@H]1O

$$$$

     RDKit          3D

 13 14  0  0  0  0  0  0  0  0999 V2000
   -0.0058    2.7727    0.2124 C   0  0  0  0  0  0  0  0  0  0  0  0
   -0.1288    1.3503   -0.0780 N   0  0  0  0  0  0  0  0  0  0  0  0
    0.9626    0.5496   -0.0737 C   0  0  0  0  0  0  0  0  0  0  0  0
    2.2882    0.8262   -0.1057 N   0  0  0  0  0  0  0  0  0  0  0  0
    2.8600   -0.3625   -0.4181 C   0  0  0  0  0  0  0  0  0  0  0  0
    2.0820   -1.2940    0.1848 N   0  0  0  0  0  0  0  0  0  0  0  0
    0.8238   -0.8201    0.1234 C   0  0  0  0  0  0  0  0  0  0  0  0
   -0.4459   -1.3079    0.3187 C   0  0  0  0  0  0  0  0  0  0  0  0
   -0.5744   -2.3492    0.9984 O   0  0  0  0  0  0  0  0  0  0  0  0
   -1.5059   -0.5053    0.0656 N   0  0  0  0  0  0  0  0  0  0  0  0
   -2.7765   -1.1440   -0.1616 C   0  0  0  0  0  0  0  0  0  0  0  0
   -1.3362    0.7787   -0.3073 C   0  0  0  0  0  0  0  0  0  0  0  0
   -2.2431    1.5053   -0.7589 O   0  0  0  0  0  0  0  0  0  0  0  0
  1  2  1  0
  2  3  1  0
  3  4  1  0
  4  5  2  0
  5  6  1  0
  6  7  1  0
  7  8  1  0
  8  9  2  0
  8 10  1  0
 10 11  1  0
 10 12  1  0
 12 13  2  0
 12  2  1  0
  7  3  2  0
M  END
>  <zinc_id>  (228) 
ZINC000018043251

>  <smiles>  (228) 
Cn1c(=O)c2[nH]cnc2n(C)c1=O

$$$$

     RDKit          3D

  7  7  0  0  0  0  0  0  0  0999 V2000
   -0.2858    1.6065    0.7015 N   0  0  0  0  0  0  0  0  0  0  0  0
   -0.0549    0.8788   -0.6835 C   0  0  2  0  0  0  0  0  0  0  0  0
   -1.4871    0.0706   -0.5546 C   0  0  0  0  0  0  0  0  0  0  0  0
   -1.1625   -0.7485    0.5665 O   0  0  0  0  0  0  0  0  0  0  0  0
    0.0168   -1.2947    0.0886 N   0  0  0  0  0  0  0  0  0  0  0  0
    0.7969   -0.3013    0.0202 C   0  0  0  0  0  0  0  0  0  0  0  0
    2.1766   -0.2114   -0.1387 O   0  0  0  0  0  0  0  0  0  0  0  0
  2  1  1  1
  2  3  1  0
  3  4  1  0
  4  5  1  0
  5  6  2  0
  6  7  1  0
  6  2  1  0
M  END
>  <zinc_id>  (229) 
ZINC000034676245

>  <smiles>  (229) 
N[C@@H]1CON=C1O

$$$$

     RDKit          3D

  9  9  0  0  0  0  0  0  0  0999 V2000
    2.5388    0.5220   -0.7720 N   0  0  0  0  0  0  0  0  0  0  0  0
    1.7086    0.0332    0.0768 C   0  0  0  0  0  0  0  0  0  0  0  0
    2.1361   -0.7100    1.1797 O   0  0  0  0  0  0  0  0  0  0  0  0
    0.2948    0.1714   -0.2472 C   0  0  0  0  0  0  0  0  0  0  0  0
   -0.5034    1.1884    0.2610 C   0  0  0  0  0  0  0  0  0  0  0  0
   -1.7663    0.9125    0.6718 N   0  0  0  0  0  0  0  0  0  0  0  0
   -2.3239   -0.2841    0.3570 C   0  0  0  0  0  0  0  0  0  0  0  0
   -1.6862   -1.0565   -0.6073 C   0  0  0  0  0  0  0  0  0  0  0  0
   -0.3985   -0.7769   -0.9198 N   0  0  0  0  0  0  0  0  0  0  0  0
  1  2  2  0
  2  3  1  0
  2  4  1  0
  4  5  2  0
  5  6  1  0
  6  7  2  0
  7  8  1  0
  8  9  2  0
  9  4  1  0
M  END
>  <zinc_id>  (230) 
ZINC000000002005

>  <smiles>  (230) 
N=C(O)c1cnccn1

$$$$

     RDKit          3D

 23 25  0  0  0  0  0  0  0  0999 V2000
    4.5000   -0.3284   -0.8949 C   0  0  0  0  0  0  0  0  0  0  0  0
    4.3978   -0.4366   -0.6476 N   0  0  0  0  0  0  0  0  0  0  0  0
    5.1082   -1.6583   -0.3795 C   0  0  0  0  0  0  0  0  0  0  0  0
    4.7106    0.6425    0.2005 C   0  0  0  0  0  0  0  0  0  0  0  0
    3.4346    1.2554    0.6864 C   0  0  0  0  0  0  0  0  0  0  0  0
    2.5283    0.8883   -0.6374 C   0  0  2  0  0  0  0  0  0  0  0  0
    1.2722    0.6186    0.2201 O   0  0  0  0  0  0  0  0  0  0  0  0
    0.4265   -0.3445   -0.3006 C   0  0  0  0  0  0  0  0  0  0  0  0
    0.9746   -1.3224   -0.8954 O   0  0  0  0  0  0  0  0  0  0  0  0
   -1.0256   -0.1770   -0.5313 C   0  0  2  0  0  0  0  0  0  0  0  0
   -1.2181   -0.3262   -1.9132 O   0  0  0  0  0  0  0  0  0  0  0  0
   -1.5029    1.1689   -0.0875 C   0  0  0  0  0  0  0  0  0  0  0  0
   -1.6339    1.4116    1.2660 C   0  0  0  0  0  0  0  0  0  0  0  0
   -2.4950    2.3733    1.7753 C   0  0  0  0  0  0  0  0  0  0  0  0
   -3.4360    2.9264    0.9437 C   0  0  0  0  0  0  0  0  0  0  0  0
   -3.4501    2.5880   -0.3848 C   0  0  0  0  0  0  0  0  0  0  0  0
   -2.3989    1.8457   -0.9006 C   0  0  0  0  0  0  0  0  0  0  0  0
   -1.8293   -1.1949    0.2270 C   0  0  0  0  0  0  0  0  0  0  0  0
   -3.2909   -1.0153   -0.0791 C   0  0  0  0  0  0  0  0  0  0  0  0
   -3.8795   -2.3950   -0.2725 C   0  0  0  0  0  0  0  0  0  0  0  0
   -2.7035   -3.2114   -0.7219 C   0  0  0  0  0  0  0  0  0  0  0  0
   -1.4733   -2.6138   -0.0933 C   0  0  0  0  0  0  0  0  0  0  0  0
    2.9844   -0.6948   -0.5891 C   0  0  0  0  0  0  0  0  0  0  0  0
  1  2  1  0
  2  3  1  0
  2  4  1  0
  4  5  1  0
  5  6  1  0
  6  7  1  1
  7  8  1  0
  8  9  2  0
 10  8  1  6
 10 11  1  0
 10 12  1  0
 12 13  2  0
 13 14  1  0
 14 15  2  0
 15 16  1  0
 16 17  2  0
 10 18  1  0
 18 19  1  0
 19 20  1  0
 20 21  1  0
 21 22  1  0
  6 23  1  0
 23  2  1  0
 17 12  1  0
 22 18  1  0
M  CHG  1   2   1
M  END
>  <zinc_id>  (231) 
ZINC000000000346

>  <smiles>  (231) 
C[N+]1(C)CC[C@H](OC(=O)[C@](O)(c2ccccc2)C2CCCC2)C1

$$$$

     RDKit          3D

 18 19  0  0  0  0  0  0  0  0999 V2000
    4.1152   -0.9506   -0.8093 C   0  0  0  0  0  0  0  0  0  0  0  0
    2.8472   -1.4375   -0.8672 C   0  0  0  0  0  0  0  0  0  0  0  0
    1.8622   -0.6430   -0.1416 N   0  0  0  0  0  0  0  0  0  0  0  0
    1.7113   -0.8635    1.2797 C   0  0  0  0  0  0  0  0  0  0  0  0
    3.0241   -1.1450    1.9443 C   0  0  0  0  0  0  0  0  0  0  0  0
    0.8431    0.0557   -0.8619 C   0  0  0  0  0  0  0  0  0  0  0  0
    1.0567    0.2626   -2.0971 O   0  0  0  0  0  0  0  0  0  0  0  0
   -0.3393    0.4898   -0.2395 C   0  0  1  0  0  0  0  0  0  0  0  0
   -1.6324   -0.2226   -0.2396 C   0  0  0  0  0  0  0  0  0  0  0  0
   -2.8595    0.4054   -0.1927 C   0  0  0  0  0  0  0  0  0  0  0  0
   -3.9388   -0.2825    0.3382 C   0  0  0  0  0  0  0  0  0  0  0  0
   -3.7791   -1.6206    0.6755 C   0  0  0  0  0  0  0  0  0  0  0  0
   -2.6376   -2.3190    0.3231 C   0  0  0  0  0  0  0  0  0  0  0  0
   -1.5115   -1.5955   -0.0528 C   0  0  0  0  0  0  0  0  0  0  0  0
   -0.1293    1.1860    1.2659 C   0  0  0  0  0  0  0  0  0  0  0  0
   -0.5794    2.1318   -0.0480 C   0  0  1  0  0  0  0  0  0  0  0  0
    1.0173    2.5950   -0.4047 C   0  0  0  0  0  0  0  0  0  0  0  0
    0.9299    3.9537    0.1275 N   0  0  0  0  0  0  0  0  0  0  0  0
  1  2  1  0
  2  3  1  0
  3  4  1  0
  4  5  1  0
  3  6  1  0
  6  7  2  0
  8  6  1  6
  8  9  1  0
  9 10  2  0
 10 11  1  0
 11 12  2  0
 12 13  1  0
 13 14  2  0
  8 15  1  0
 15 16  1  0
 16 17  1  6
 17 18  1  0
 16  8  1  0
 14  9  1  0
M  END
>  <zinc_id>  (232) 
ZINC000000000506

>  <smiles>  (232) 
CCN(CC)C(=O)[C@@]1(c2ccccc2)C[C@H]1CN

$$$$

     RDKit          3D

 23 25  0  0  0  0  0  0  0  0999 V2000
    6.7866    1.9354    0.0198 C   0  0  0  0  0  0  0  0  0  0  0  0
    6.1994    0.8881    0.8447 N   0  0  0  0  0  0  0  0  0  0  0  0
    4.6300    0.5425    0.1939 S   0  0  0  0  0  0  0  0  0  0  0  0
    4.7128    0.3569   -1.2839 O   0  0  0  0  0  0  0  0  0  0  0  0
    3.7280    1.7071    0.5259 O   0  0  0  0  0  0  0  0  0  0  0  0
    4.0363   -0.9483    0.9550 C   0  0  0  0  0  0  0  0  0  0  0  0
    2.6916   -0.7147    1.6329 C   0  0  0  0  0  0  0  0  0  0  0  0
    1.6600   -0.5640    0.5728 C   0  0  0  0  0  0  0  0  0  0  0  0
    1.8784   -1.0136   -0.7092 C   0  0  0  0  0  0  0  0  0  0  0  0
    0.8586   -1.4497   -1.5443 C   0  0  0  0  0  0  0  0  0  0  0  0
   -0.4341   -1.4191   -1.0345 C   0  0  0  0  0  0  0  0  0  0  0  0
   -1.5719   -2.0872   -1.2329 N   0  0  0  0  0  0  0  0  0  0  0  0
   -2.5792   -1.5273   -0.5190 C   0  0  0  0  0  0  0  0  0  0  0  0
   -2.0461   -0.4750    0.1998 C   0  0  0  0  0  0  0  0  0  0  0  0
   -2.7408    0.7100    0.7845 C   0  0  0  0  0  0  0  0  0  0  0  0
   -4.0489    0.2682    1.4015 C   0  0  0  0  0  0  0  0  0  0  0  0
   -4.8766   -0.2478    0.2312 C   0  0  0  0  0  0  0  0  0  0  0  0
   -5.2666    0.8883   -0.5399 N   0  0  0  0  0  0  0  0  0  0  0  0
   -6.0815    0.4195   -1.6407 C   0  0  0  0  0  0  0  0  0  0  0  0
   -4.2651    1.8056   -0.9053 C   0  0  0  0  0  0  0  0  0  0  0  0
   -2.9604    1.7679   -0.2365 C   0  0  0  0  0  0  0  0  0  0  0  0
   -0.6705   -0.6316    0.0856 C   0  0  0  0  0  0  0  0  0  0  0  0
    0.3599   -0.2113    0.9154 C   0  0  0  0  0  0  0  0  0  0  0  0
  1  2  1  0
  2  3  1  0
  3  4  2  0
  3  5  2  0
  3  6  1  0
  6  7  1  0
  7  8  1  0
  8  9  2  0
  9 10  1  0
 10 11  2  0
 11 12  1  0
 12 13  1  0
 13 14  2  0
 14 15  1  0
 15 16  1  0
 16 17  1  0
 17 18  1  0
 18 19  1  0
 18 20  1  0
 20 21  1  0
 14 22  1  0
 22 23  2  0
 23  8  1  0
 22 11  1  0
 21 15  1  0
M  END
>  <zinc_id>  (233) 
ZINC000000004076

>  <smiles>  (233) 
CNS(=O)(=O)CCc1ccc2[nH]cc(C3CCN(C)CC3)c2c1

$$$$

     RDKit          3D

 18 19  0  0  0  0  0  0  0  0999 V2000
   -4.4979    1.5302   -0.7966 N   0  0  0  0  0  0  0  0  0  0  0  0
   -3.5364    0.5307   -0.4659 C   0  0  0  0  0  0  0  0  0  0  0  0
   -2.2371    0.6986   -0.8135 N   0  0  0  0  0  0  0  0  0  0  0  0
   -1.2755    0.1402   -0.0519 C   0  0  0  0  0  0  0  0  0  0  0  0
   -1.6398   -0.7146    0.9811 C   0  0  0  0  0  0  0  0  0  0  0  0
   -0.5256   -0.8270    1.7402 N   0  0  0  0  0  0  0  0  0  0  0  0
    0.4304   -0.0008    1.2498 C   0  0  0  0  0  0  0  0  0  0  0  0
    0.0667    0.3044   -0.0028 N   0  0  0  0  0  0  0  0  0  0  0  0
    0.8962    0.5012   -1.1883 C   0  0  0  0  0  0  0  0  0  0  0  0
    2.3078    0.8572   -0.7744 C   0  0  0  0  0  0  0  0  0  0  0  0
    3.2064   -0.2593   -1.2230 C   0  0  0  0  0  0  0  0  0  0  0  0
    4.5176    0.2113   -1.7856 C   0  0  0  0  0  0  0  0  0  0  0  0
    5.0311    1.3236   -1.1455 O   0  0  0  0  0  0  0  0  0  0  0  0
    3.3558   -1.3508   -0.1962 C   0  0  0  0  0  0  0  0  0  0  0  0
    3.9604   -0.8630    0.9732 O   0  0  0  0  0  0  0  0  0  0  0  0
   -2.9510   -1.1355    1.0905 C   0  0  0  0  0  0  0  0  0  0  0  0
   -3.2242   -1.9761    1.9785 O   0  0  0  0  0  0  0  0  0  0  0  0
   -3.8849   -0.4153    0.4305 N   0  0  0  0  0  0  0  0  0  0  0  0
  1  2  1  0
  2  3  2  0
  3  4  1  0
  4  5  2  0
  5  6  1  0
  6  7  2  0
  7  8  1  0
  8  9  1  0
  9 10  1  0
 10 11  1  0
 11 12  1  0
 12 13  1  0
 11 14  1  0
 14 15  1  0
  5 16  1  0
 16 17  2  0
 16 18  1  0
 18  2  1  0
  8  4  1  0
M  END
>  <zinc_id>  (234) 
ZINC000000001899

>  <smiles>  (234) 
Nc1nc2c(ncn2CCC(CO)CO)c(=O)[nH]1

$$$$

     RDKit          3D

 15 16  0  0  0  0  0  0  0  0999 V2000
    4.4940   -0.1237   -0.4385 N   0  0  0  0  0  0  0  0  0  0  0  0
    3.2216   -0.1554    0.2197 C   0  0  0  0  0  0  0  0  0  0  0  0
    2.5543    1.0113    0.5687 C   0  0  0  0  0  0  0  0  0  0  0  0
    1.1702    1.0904    0.4799 C   0  0  0  0  0  0  0  0  0  0  0  0
    0.4008    2.6753    0.5052 Cl  0  0  0  0  0  0  0  0  0  0  0  0
    0.4087    0.0200    0.0268 C   0  0  0  0  0  0  0  0  0  0  0  0
   -0.6767    0.2376   -0.8831 N   0  0  0  0  0  0  0  0  0  0  0  0
   -1.9099    0.1359   -0.5528 C   0  0  0  0  0  0  0  0  0  0  0  0
   -2.6267    1.2203    0.0507 N   0  0  0  0  0  0  0  0  0  0  0  0
   -3.9027    0.7489    0.5160 C   0  0  0  0  0  0  0  0  0  0  0  0
   -3.9819   -0.7134    0.1450 C   0  0  0  0  0  0  0  0  0  0  0  0
   -2.7391   -1.0323   -0.5163 N   0  0  0  0  0  0  0  0  0  0  0  0
    1.0564   -1.2080    0.0701 C   0  0  0  0  0  0  0  0  0  0  0  0
    0.0937   -2.6060   -0.3745 Cl  0  0  0  0  0  0  0  0  0  0  0  0
    2.4373   -1.3010    0.1830 C   0  0  0  0  0  0  0  0  0  0  0  0
  1  2  1  0
  2  3  2  0
  3  4  1  0
  4  5  1  0
  4  6  2  0
  6  7  1  0
  7  8  2  3
  8  9  1  0
  9 10  1  0
 10 11  1  0
 11 12  1  0
  6 13  1  0
 13 14  1  0
 13 15  2  0
 15  2  1  0
 12  8  1  0
M  END
>  <zinc_id>  (235) 
ZINC000000020231

>  <smiles>  (235) 
Nc1cc(Cl)c(N=C2NCCN2)c(Cl)c1

$$$$

     RDKit          3D

 19 20  0  0  0  0  0  0  0  0999 V2000
    3.3797   -2.0316   -0.3849 C   0  0  0  0  0  0  0  0  0  0  0  0
    3.9747   -0.8527    0.3130 C   0  0  0  0  0  0  0  0  0  0  0  0
    5.2296   -0.5145    0.3795 O   0  0  0  0  0  0  0  0  0  0  0  0
    5.3076    0.7306    0.7142 N   0  0  0  0  0  0  0  0  0  0  0  0
    4.0756    1.2407    0.9552 C   0  0  0  0  0  0  0  0  0  0  0  0
    3.2271    0.1414    0.9311 C   0  0  0  0  0  0  0  0  0  0  0  0
    1.7646    0.1399    1.0037 C   0  0  0  0  0  0  0  0  0  0  0  0
    1.1621    1.1162    1.5258 O   0  0  0  0  0  0  0  0  0  0  0  0
    1.0328   -0.5877    0.0102 N   0  0  0  0  0  0  0  0  0  0  0  0
   -0.3651   -0.4732   -0.1476 C   0  0  0  0  0  0  0  0  0  0  0  0
   -1.1345   -0.5789    1.0048 C   0  0  0  0  0  0  0  0  0  0  0  0
   -2.4167   -0.0423    0.9930 C   0  0  0  0  0  0  0  0  0  0  0  0
   -3.0018    0.3041   -0.1935 C   0  0  0  0  0  0  0  0  0  0  0  0
   -4.4507    0.1703   -0.4851 C   0  0  0  0  0  0  0  0  0  0  0  0
   -4.9863   -0.9607    0.1179 F   0  0  0  0  0  0  0  0  0  0  0  0
   -5.0877    1.2957    0.0239 F   0  0  0  0  0  0  0  0  0  0  0  0
   -4.7059    0.0653   -1.8268 F   0  0  0  0  0  0  0  0  0  0  0  0
   -2.1782    0.5661   -1.2783 C   0  0  0  0  0  0  0  0  0  0  0  0
   -0.8271    0.2714   -1.2004 C   0  0  0  0  0  0  0  0  0  0  0  0
  1  2  1  0
  2  3  1  0
  3  4  1  0
  4  5  2  0
  5  6  1  0
  6  7  1  0
  7  8  2  0
  7  9  1  0
  9 10  1  0
 10 11  2  0
 11 12  1  0
 12 13  2  0
 13 14  1  0
 14 15  1  0
 14 16  1  0
 14 17  1  0
 13 18  1  0
 18 19  2  0
  6  2  2  0
 19 10  1  0
M  END
>  <zinc_id>  (236) 
ZINC000000004840

>  <smiles>  (236) 
Cc1oncc1C(=O)Nc1ccc(C(F)(F)F)cc1

$$$$

     RDKit          3D

 29 30  0  0  0  0  0  0  0  0999 V2000
    0.7421   -0.9602    1.1830 C   0  0  0  0  0  0  0  0  0  0  0  0
    0.2160    0.3644    0.8737 N   0  0  0  0  0  0  0  0  0  0  0  0
   -1.1138    0.2402    0.3072 C   0  0  0  0  0  0  0  0  0  0  0  0
   -0.9890   -0.4289   -1.0533 C   0  0  0  0  0  0  0  0  0  0  0  0
   -1.9793   -1.4498   -1.0695 O   0  0  0  0  0  0  0  0  0  0  0  0
   -3.2358   -1.1008   -0.5649 C   0  0  0  0  0  0  0  0  0  0  0  0
   -3.8549   -1.8647    0.4109 C   0  0  0  0  0  0  0  0  0  0  0  0
   -4.9370   -1.3589    1.1198 C   0  0  0  0  0  0  0  0  0  0  0  0
   -5.2726   -0.0251    0.9235 C   0  0  0  0  0  0  0  0  0  0  0  0
   -6.4894    0.4770    1.4889 N   0  0  0  0  0  0  0  0  0  0  0  0
   -7.8429    0.5621    0.4065 S   0  0  0  0  0  0  0  0  0  0  0  0
   -8.1481   -1.1069   -0.1520 C   0  0  0  0  0  0  0  0  0  0  0  0
   -7.4623    1.3687   -0.7938 O   0  0  0  0  0  0  0  0  0  0  0  0
   -9.0523    1.1350    1.0652 O   0  0  0  0  0  0  0  0  0  0  0  0
   -4.9139    0.5198   -0.3007 C   0  0  0  0  0  0  0  0  0  0  0  0
   -3.7438    0.1361   -0.9302 C   0  0  0  0  0  0  0  0  0  0  0  0
    1.0843    1.0883   -0.0379 C   0  0  0  0  0  0  0  0  0  0  0  0
    1.9359    0.1365   -0.8508 C   0  0  0  0  0  0  0  0  0  0  0  0
    3.1768   -0.1622   -0.1133 C   0  0  0  0  0  0  0  0  0  0  0  0
    3.6619    0.6070    0.9262 C   0  0  0  0  0  0  0  0  0  0  0  0
    5.0059    0.4770    1.2534 C   0  0  0  0  0  0  0  0  0  0  0  0
    5.8010   -0.5218    0.7065 C   0  0  0  0  0  0  0  0  0  0  0  0
    7.2112   -0.3362    0.5349 N   0  0  0  0  0  0  0  0  0  0  0  0
    7.6739    0.9949   -0.4780 S   0  0  0  0  0  0  0  0  0  0  0  0
    9.3982    0.9906   -0.8369 C   0  0  0  0  0  0  0  0  0  0  0  0
    7.2286    2.2380    0.2385 O   0  0  0  0  0  0  0  0  0  0  0  0
    6.9136    0.8436   -1.7693 O   0  0  0  0  0  0  0  0  0  0  0  0
    5.1497   -1.5189    0.0015 C   0  0  0  0  0  0  0  0  0  0  0  0
    3.8360   -1.3447   -0.3839 C   0  0  0  0  0  0  0  0  0  0  0  0
  1  2  1  0
  2  3  1  0
  3  4  1  0
  4  5  1  0
  5  6  1  0
  6  7  2  0
  7  8  1  0
  8  9  2  0
  9 10  1  0
 10 11  1  0
 11 12  1  0
 11 13  2  0
 11 14  2  0
  9 15  1  0
 15 16  2  0
  2 17  1  0
 17 18  1  0
 18 19  1  0
 19 20  2  0
 20 21  1  0
 21 22  2  0
 22 23  1  0
 23 24  1  0
 24 25  1  0
 24 26  2  0
 24 27  2  0
 22 28  1  0
 28 29  2  0
 16  6  1  0
 29 19  1  0
M  END
>  <zinc_id>  (237) 
ZINC000000596731

>  <smiles>  (237) 
CN(CCOc1ccc(NS(C)(=O)=O)cc1)CCc1ccc(NS(C)(=O)=O)cc1

$$$$

     RDKit          3D

 14 15  0  0  0  0  0  0  0  0999 V2000
   -0.7512   -2.2756   -1.7696 Cl  0  0  0  0  0  0  0  0  0  0  0  0
   -1.2738   -1.1875   -0.4878 C   0  0  0  0  0  0  0  0  0  0  0  0
   -2.0857   -1.6233    0.5409 C   0  0  0  0  0  0  0  0  0  0  0  0
   -2.7668   -0.6486    1.2383 C   0  0  0  0  0  0  0  0  0  0  0  0
   -2.2564    0.6435    1.2788 C   0  0  0  0  0  0  0  0  0  0  0  0
   -1.3907    1.0743    0.2880 C   0  0  0  0  0  0  0  0  0  0  0  0
   -1.3085    2.7560   -0.2224 Cl  0  0  0  0  0  0  0  0  0  0  0  0
   -0.9215    0.1469   -0.6349 C   0  0  0  0  0  0  0  0  0  0  0  0
    0.3890    0.4112   -1.1521 N   0  0  0  0  0  0  0  0  0  0  0  0
    1.4302    0.2717   -0.3871 C   0  0  0  0  0  0  0  0  0  0  0  0
    1.8922   -0.9321    0.2353 N   0  0  0  0  0  0  0  0  0  0  0  0
    3.3090   -0.7041    0.5006 C   0  0  0  0  0  0  0  0  0  0  0  0
    3.5497    0.7746    0.2925 C   0  0  0  0  0  0  0  0  0  0  0  0
    2.1846    1.2929    0.2794 N   0  0  0  0  0  0  0  0  0  0  0  0
  1  2  1  0
  2  3  2  0
  3  4  1  0
  4  5  2  0
  5  6  1  0
  6  7  1  0
  6  8  2  0
  8  9  1  0
  9 10  2  3
 10 11  1  0
 11 12  1  0
 12 13  1  0
 13 14  1  0
  8  2  1  0
 14 10  1  0
M  END
>  <zinc_id>  (238) 
ZINC000000896484

>  <smiles>  (238) 
Clc1cccc(Cl)c1N=C1NCCN1

$$$$

     RDKit          3D

 26 28  0  0  0  0  0  0  0  0999 V2000
   -3.7335   -4.8105   -0.3924 C   0  0  0  0  0  0  0  0  0  0  0  0
   -3.2047   -3.4624   -0.0705 C   0  0  0  0  0  0  0  0  0  0  0  0
   -2.8835   -3.0410    1.1920 C   0  0  0  0  0  0  0  0  0  0  0  0
   -2.1456   -1.8869    1.4247 C   0  0  0  0  0  0  0  0  0  0  0  0
   -1.7453   -1.0930    0.3568 C   0  0  0  0  0  0  0  0  0  0  0  0
   -1.4175    0.3196    0.5953 C   0  0  0  0  0  0  0  0  0  0  0  0
   -2.2976    1.3253    0.9778 C   0  0  0  0  0  0  0  0  0  0  0  0
   -1.7894    2.5570    0.5819 C   0  0  0  0  0  0  0  0  0  0  0  0
   -2.5522    3.7467    0.0854 C   0  0  0  0  0  0  0  0  0  0  0  0
   -3.0350    3.5454   -1.1923 F   0  0  0  0  0  0  0  0  0  0  0  0
   -3.6230    3.9718    0.9116 F   0  0  0  0  0  0  0  0  0  0  0  0
   -1.6772    4.8005    0.0143 F   0  0  0  0  0  0  0  0  0  0  0  0
   -0.5198    2.2911    0.2155 N   0  0  0  0  0  0  0  0  0  0  0  0
   -0.2874    0.9827    0.2596 N   0  0  0  0  0  0  0  0  0  0  0  0
    0.9510    0.3521   -0.0859 C   0  0  0  0  0  0  0  0  0  0  0  0
    1.9707    1.0968   -0.6623 C   0  0  0  0  0  0  0  0  0  0  0  0
    3.3041    0.7510   -0.5162 C   0  0  0  0  0  0  0  0  0  0  0  0
    3.6052   -0.5535   -0.1954 C   0  0  0  0  0  0  0  0  0  0  0  0
    5.2144   -1.1441   -0.5267 S   0  0  0  0  0  0  0  0  0  0  0  0
    6.3576   -0.0091    0.1228 N   0  0  0  0  0  0  0  0  0  0  0  0
    5.4682   -2.4662    0.1200 O   0  0  0  0  0  0  0  0  0  0  0  0
    5.4690   -1.1955   -2.0146 O   0  0  0  0  0  0  0  0  0  0  0  0
    2.6261   -1.3194    0.3880 C   0  0  0  0  0  0  0  0  0  0  0  0
    1.3315   -0.8372    0.5211 C   0  0  0  0  0  0  0  0  0  0  0  0
   -2.3671   -1.3652   -0.8558 C   0  0  0  0  0  0  0  0  0  0  0  0
   -3.0190   -2.5564   -1.1008 C   0  0  0  0  0  0  0  0  0  0  0  0
  1  2  1  0
  2  3  2  0
  3  4  1  0
  4  5  2  0
  5  6  1  0
  6  7  2  0
  7  8  1  0
  8  9  1  0
  9 10  1  0
  9 11  1  0
  9 12  1  0
  8 13  2  0
 13 14  1  0
 14 15  1  0
 15 16  2  0
 16 17  1  0
 17 18  2  0
 18 19  1  0
 19 20  1  0
 19 21  2  0
 19 22  2  0
 18 23  1  0
 23 24  2  0
  5 25  1  0
 25 26  2  0
 26  2  1  0
 14  6  1  0
 24 15  1  0
M  END
>  <zinc_id>  (239) 
ZINC000002570895

>  <smiles>  (239) 
Cc1ccc(-c2cc(C(F)(F)F)nn2-c2ccc(S(N)(=O)=O)cc2)cc1

$$$$

     RDKit          3D

 16 15  0  0  0  0  0  0  0  0999 V2000
    3.9231    1.6792    1.8626 C   0  0  0  0  0  0  0  0  0  0  0  0
    4.0575    0.2569    1.3672 C   0  0  0  0  0  0  0  0  0  0  0  0
    3.4227    0.1993    0.0513 N   0  0  0  0  0  0  0  0  0  0  0  0
    4.1105   -0.2984   -1.1163 C   0  0  0  0  0  0  0  0  0  0  0  0
    3.5354   -1.6099   -1.6131 C   0  0  0  0  0  0  0  0  0  0  0  0
    2.0488    0.6060    0.0280 C   0  0  0  0  0  0  0  0  0  0  0  0
    1.7088    1.9583   -0.8114 S   0  0  0  0  0  0  0  0  0  0  0  0
    0.8102   -0.4778    0.6961 S   0  0  0  0  0  0  0  0  0  0  0  0
   -0.6077   -0.7755   -0.8800 S   0  0  0  0  0  0  0  0  0  0  0  0
   -2.0587    0.1342   -0.4545 C   0  0  0  0  0  0  0  0  0  0  0  0
   -2.2447    1.7343   -0.6089 S   0  0  0  0  0  0  0  0  0  0  0  0
   -3.0998   -0.5664    0.2364 N   0  0  0  0  0  0  0  0  0  0  0  0
   -3.3242   -1.9500   -0.1323 C   0  0  0  0  0  0  0  0  0  0  0  0
   -4.2488   -1.9883   -1.3344 C   0  0  0  0  0  0  0  0  0  0  0  0
   -3.5302   -0.0115    1.5178 C   0  0  0  0  0  0  0  0  0  0  0  0
   -4.5028    1.1096    1.1916 C   0  0  0  0  0  0  0  0  0  0  0  0
  1  2  1  0
  2  3  1  0
  3  4  1  0
  4  5  1  0
  3  6  1  0
  6  7  2  0
  6  8  1  0
  8  9  1  0
  9 10  1  0
 10 11  2  0
 10 12  1  0
 12 13  1  0
 13 14  1  0
 12 15  1  0
 15 16  1  0
M  END
>  <zinc_id>  (240) 
ZINC000001529266

>  <smiles>  (240) 
CCN(CC)C(=S)SSC(=S)N(CC)CC

$$$$

     RDKit          3D

 28 30  0  0  0  0  0  0  0  0999 V2000
   -2.8428    1.0541    2.0665 C   0  0  0  0  0  0  0  0  0  0  0  0
   -3.7034    0.2528    1.1747 C   0  0  0  0  0  0  0  0  0  0  0  0
   -4.9334    0.6347    0.7132 C   0  0  0  0  0  0  0  0  0  0  0  0
   -5.6778   -0.1252   -0.1803 C   0  0  0  0  0  0  0  0  0  0  0  0
   -6.5093    0.4909   -1.1896 C   0  0  0  0  0  0  0  0  0  0  0  0
   -7.2192    0.9636   -1.9812 N   0  0  0  0  0  0  0  0  0  0  0  0
   -5.3367   -1.4720   -0.2407 C   0  0  0  0  0  0  0  0  0  0  0  0
   -4.1433   -1.9140    0.3176 C   0  0  0  0  0  0  0  0  0  0  0  0
   -3.8440   -3.3694    0.4962 C   0  0  0  0  0  0  0  0  0  0  0  0
   -3.2117   -0.9684    0.7282 C   0  0  0  0  0  0  0  0  0  0  0  0
   -1.8740   -1.2694    0.6513 O   0  0  0  0  0  0  0  0  0  0  0  0
   -0.9270   -0.4655    0.0140 C   0  0  0  0  0  0  0  0  0  0  0  0
   -0.0218    0.1577    0.8084 N   0  0  0  0  0  0  0  0  0  0  0  0
    1.1638    0.5865    0.3693 C   0  0  0  0  0  0  0  0  0  0  0  0
    2.0966    1.1102    1.3215 N   0  0  0  0  0  0  0  0  0  0  0  0
    3.4863    1.0350    1.0701 C   0  0  0  0  0  0  0  0  0  0  0  0
    4.1191   -0.1751    0.8148 C   0  0  0  0  0  0  0  0  0  0  0  0
    5.4856   -0.2412    0.5942 C   0  0  0  0  0  0  0  0  0  0  0  0
    6.2586    0.8594    0.9141 C   0  0  0  0  0  0  0  0  0  0  0  0
    7.5818    0.9986    0.3602 C   0  0  0  0  0  0  0  0  0  0  0  0
    8.5791    1.2108   -0.2021 N   0  0  0  0  0  0  0  0  0  0  0  0
    5.6638    1.8828    1.6362 C   0  0  0  0  0  0  0  0  0  0  0  0
    4.2820    2.0239    1.6248 C   0  0  0  0  0  0  0  0  0  0  0  0
    1.4537    0.5469   -0.9492 N   0  0  0  0  0  0  0  0  0  0  0  0
    0.7314   -0.2675   -1.7496 C   0  0  0  0  0  0  0  0  0  0  0  0
    1.3142   -0.9262   -2.8735 N   0  0  0  0  0  0  0  0  0  0  0  0
   -0.4646   -0.7584   -1.2635 C   0  0  0  0  0  0  0  0  0  0  0  0
   -1.5071   -1.8552   -2.3960 Br  0  0  0  0  0  0  0  0  0  0  0  0
  1  2  1  0
  2  3  2  0
  3  4  1  0
  4  5  1  0
  5  6  3  0
  4  7  2  0
  7  8  1  0
  8  9  1  0
  8 10  2  0
 10 11  1  0
 11 12  1  0
 12 13  2  0
 13 14  1  0
 14 15  1  0
 15 16  1  0
 16 17  2  0
 17 18  1  0
 18 19  2  0
 19 20  1  0
 20 21  3  0
 19 22  1  0
 22 23  2  0
 14 24  2  0
 24 25  1  0
 25 26  1  0
 25 27  2  0
 27 28  1  0
 10  2  1  0
 27 12  1  0
 23 16  1  0
M  END
>  <zinc_id>  (241) 
ZINC000000602632

>  <smiles>  (241) 
Cc1cc(C#N)cc(C)c1Oc1nc(Nc2ccc(C#N)cc2)nc(N)c1Br

$$$$

     RDKit          3D

 35 37  0  0  0  0  0  0  0  0999 V2000
   -4.1233   -4.5277    1.3853 C   0  0  0  0  0  0  0  0  0  0  0  0
   -3.7452   -3.8675    0.7644 O   0  0  0  0  0  0  0  0  0  0  0  0
   -3.6571   -2.4844    0.8921 C   0  0  0  0  0  0  0  0  0  0  0  0
   -3.9654   -2.0446    2.0414 O   0  0  0  0  0  0  0  0  0  0  0  0
   -3.0299   -1.6083   -0.1076 C   0  0  0  0  0  0  0  0  0  0  0  0
   -3.5386   -1.3673   -1.2727 C   0  0  0  0  0  0  0  0  0  0  0  0
   -4.6104   -2.3119   -1.7289 C   0  0  0  0  0  0  0  0  0  0  0  0
   -2.9255   -0.4245   -2.1447 N   0  0  0  0  0  0  0  0  0  0  0  0
   -1.5438   -0.1573   -1.9012 C   0  0  0  0  0  0  0  0  0  0  0  0
   -0.5674    0.0981   -3.0092 C   0  0  0  0  0  0  0  0  0  0  0  0
   -1.0696   -0.4771   -0.7558 C   0  0  0  0  0  0  0  0  0  0  0  0
    0.3099   -0.8326   -0.4777 C   0  0  0  0  0  0  0  0  0  0  0  0
    1.0601   -1.0023   -1.4577 O   0  0  0  0  0  0  0  0  0  0  0  0
    0.8066   -1.1068    0.7731 O   0  0  0  0  0  0  0  0  0  0  0  0
    2.1524   -0.8667    1.0994 C   0  0  0  0  0  0  0  0  0  0  0  0
    3.0731   -2.0027    0.7675 C   0  0  0  0  0  0  0  0  0  0  0  0
    4.3046   -1.4660    0.2010 N   0  0  0  0  0  0  0  0  0  0  0  0
    5.1961   -2.4967   -0.2625 C   0  0  0  0  0  0  0  0  0  0  0  0
    4.9432   -0.6200    1.1739 C   0  0  0  0  0  0  0  0  0  0  0  0
    5.9882    0.2395    0.5345 C   0  0  0  0  0  0  0  0  0  0  0  0
    7.3204   -0.1561    0.5275 C   0  0  0  0  0  0  0  0  0  0  0  0
    8.2051    0.5055   -0.3155 C   0  0  0  0  0  0  0  0  0  0  0  0
    7.6486    0.9853   -1.4943 C   0  0  0  0  0  0  0  0  0  0  0  0
    6.4652    1.6911   -1.3132 C   0  0  0  0  0  0  0  0  0  0  0  0
    5.6073    1.2848   -0.2978 C   0  0  0  0  0  0  0  0  0  0  0  0
   -2.0341   -0.5068    0.5391 C   0  0  1  0  0  0  0  0  0  0  0  0
   -2.9388    0.7608    0.0713 C   0  0  0  0  0  0  0  0  0  0  0  0
   -4.2323    0.6673    0.5784 C   0  0  0  0  0  0  0  0  0  0  0  0
   -4.9635    1.8173    0.7164 C   0  0  0  0  0  0  0  0  0  0  0  0
   -4.3214    3.0330    0.9165 C   0  0  0  0  0  0  0  0  0  0  0  0
   -2.9627    3.0954    0.6901 C   0  0  0  0  0  0  0  0  0  0  0  0
   -2.4126    4.3816    0.3856 N   0  0  0  0  0  0  0  0  0  0  0  0
   -3.1317    5.3311   -0.0122 O   0  0  0  0  0  0  0  0  0  0  0  0
   -1.0394    4.5136    0.2902 O   0  0  0  0  0  0  0  0  0  0  0  0
   -2.2682    1.9231    0.4353 C   0  0  0  0  0  0  0  0  0  0  0  0
  1  2  1  0
  2  3  1  0
  3  4  2  0
  3  5  1  0
  5  6  2  0
  6  7  1  0
  6  8  1  0
  8  9  1  0
  9 10  1  0
  9 11  2  0
 11 12  1  0
 12 13  2  0
 12 14  1  0
 14 15  1  0
 15 16  1  0
 16 17  1  0
 17 18  1  0
 17 19  1  0
 19 20  1  0
 20 21  2  0
 21 22  1  0
 22 23  2  0
 23 24  1  0
 24 25  2  0
 11 26  1  0
 26 27  1  6
 27 28  2  0
 28 29  1  0
 29 30  2  0
 30 31  1  0
 31 32  1  0
 32 33  2  0
 32 34  1  0
 31 35  2  0
 26  5  1  0
 35 27  1  0
 25 20  1  0
M  CHG  2  32   1  34  -1
M  END
>  <zinc_id>  (242) 
ZINC000084400879

>  <smiles>  (242) 
COC(=O)C1=C(C)NC(C)=C(C(=O)OCCN(C)Cc2ccccc2)[C@H]1c1cccc([N+](=O)[O-])c1

$$$$

     RDKit          3D

 35 37  0  0  0  0  0  0  0  0999 V2000
   -5.3138    1.5881   -2.4651 C   0  0  0  0  0  0  0  0  0  0  0  0
   -4.4816    0.5810   -2.1468 O   0  0  0  0  0  0  0  0  0  0  0  0
   -3.2280    0.8747   -1.6048 C   0  0  0  0  0  0  0  0  0  0  0  0
   -2.7465    2.0098   -1.8132 O   0  0  0  0  0  0  0  0  0  0  0  0
   -2.3449   -0.1959   -1.1246 C   0  0  0  0  0  0  0  0  0  0  0  0
   -2.6569   -1.4555   -1.0923 C   0  0  0  0  0  0  0  0  0  0  0  0
   -3.6465   -1.9024   -2.1333 C   0  0  0  0  0  0  0  0  0  0  0  0
   -1.4476   -2.2285   -1.0831 N   0  0  0  0  0  0  0  0  0  0  0  0
   -0.2413   -1.5655   -0.6695 C   0  0  0  0  0  0  0  0  0  0  0  0
    0.9904   -2.4147   -0.6163 C   0  0  0  0  0  0  0  0  0  0  0  0
   -0.5413   -0.8957    0.4090 C   0  0  0  0  0  0  0  0  0  0  0  0
    0.5990   -0.3886    1.1935 C   0  0  0  0  0  0  0  0  0  0  0  0
    1.0193   -1.1186    2.1418 O   0  0  0  0  0  0  0  0  0  0  0  0
    1.6035    0.2355    0.4460 O   0  0  0  0  0  0  0  0  0  0  0  0
    2.7018    0.8363    1.0811 C   0  0  0  0  0  0  0  0  0  0  0  0
    4.0326    0.3634    0.5719 C   0  0  0  0  0  0  0  0  0  0  0  0
    3.9176   -0.0168   -0.8109 N   0  0  0  0  0  0  0  0  0  0  0  0
    3.2977    0.9846   -1.6383 C   0  0  0  0  0  0  0  0  0  0  0  0
    5.1237   -0.5661   -1.3621 C   0  0  0  0  0  0  0  0  0  0  0  0
    6.2983    0.3325   -1.2124 C   0  0  0  0  0  0  0  0  0  0  0  0
    6.7140    0.6366    0.0737 C   0  0  0  0  0  0  0  0  0  0  0  0
    7.9794    1.1143    0.3512 C   0  0  0  0  0  0  0  0  0  0  0  0
    8.9863    0.8026   -0.5304 C   0  0  0  0  0  0  0  0  0  0  0  0
    8.6146    0.5526   -1.8403 C   0  0  0  0  0  0  0  0  0  0  0  0
    7.3065    0.2365   -2.1632 C   0  0  0  0  0  0  0  0  0  0  0  0
   -1.5512    0.3815    0.1929 C   0  0  2  0  0  0  0  0  0  0  0  0
   -2.6456   -0.2599    1.2452 C   0  0  0  0  0  0  0  0  0  0  0  0
   -2.2380   -0.0846    2.5642 C   0  0  0  0  0  0  0  0  0  0  0  0
   -3.1279    0.3699    3.5302 C   0  0  0  0  0  0  0  0  0  0  0  0
   -4.4800    0.4683    3.2335 C   0  0  0  0  0  0  0  0  0  0  0  0
   -4.8841    0.0398    1.9749 C   0  0  0  0  0  0  0  0  0  0  0  0
   -6.2160   -0.4253    1.7262 N   0  0  0  0  0  0  0  0  0  0  0  0
   -6.4989   -1.6489    1.7759 O   0  0  0  0  0  0  0  0  0  0  0  0
   -6.9545    0.3244    0.8269 O   0  0  0  0  0  0  0  0  0  0  0  0
   -3.9404    0.1607    0.9685 C   0  0  0  0  0  0  0  0  0  0  0  0
  1  2  1  0
  2  3  1  0
  3  4  2  0
  3  5  1  0
  5  6  2  0
  6  7  1  0
  6  8  1  0
  8  9  1  0
  9 10  1  0
  9 11  2  0
 11 12  1  0
 12 13  2  0
 12 14  1  0
 14 15  1  0
 15 16  1  0
 16 17  1  0
 17 18  1  0
 17 19  1  0
 19 20  1  0
 20 21  2  0
 21 22  1  0
 22 23  2  0
 23 24  1  0
 24 25  2  0
 11 26  1  0
 26 27  1  1
 27 28  2  0
 28 29  1  0
 29 30  2  0
 30 31  1  0
 31 32  1  0
 32 33  2  0
 32 34  1  0
 31 35  2  0
 26  5  1  0
 35 27  1  0
 25 20  1  0
M  CHG  2  32   1  34  -1
M  END
>  <zinc_id>  (243) 
ZINC000019796087

>  <smiles>  (243) 
COC(=O)C1=C(C)NC(C)=C(C(=O)OCCN(C)Cc2ccccc2)[C@@H]1c1cccc([N+](=O)[O-])c1

$$$$

     RDKit          3D

 34 38  0  0  0  0  0  0  0  0999 V2000
   -0.8447    2.4663    1.0151 O   0  0  0  0  0  0  0  0  0  0  0  0
   -0.9978    1.2467    0.7040 C   0  0  0  0  0  0  0  0  0  0  0  0
   -2.1570    0.4707    1.1721 C   0  0  0  0  0  0  0  0  0  0  0  0
   -2.1444   -0.3811    2.2613 C   0  0  0  0  0  0  0  0  0  0  0  0
   -1.0428   -0.8571    2.9651 C   0  0  0  0  0  0  0  0  0  0  0  0
   -1.2168   -1.5795    4.1318 C   0  0  0  0  0  0  0  0  0  0  0  0
   -2.3164   -1.3034    4.9252 C   0  0  0  0  0  0  0  0  0  0  0  0
   -2.5171   -1.8451    6.1754 O   0  0  0  0  0  0  0  0  0  0  0  0
   -3.4193   -0.7550    4.2807 C   0  0  0  0  0  0  0  0  0  0  0  0
   -3.3403   -0.3028    2.9664 C   0  0  0  0  0  0  0  0  0  0  0  0
   -4.4474   -0.0742    1.6715 S   0  0  0  0  0  0  0  0  0  0  0  0
   -3.3213    0.3068    0.4307 C   0  0  0  0  0  0  0  0  0  0  0  0
   -3.5208    0.4926   -1.0124 C   0  0  0  0  0  0  0  0  0  0  0  0
   -3.9939   -0.6225   -1.6921 C   0  0  0  0  0  0  0  0  0  0  0  0
   -4.8107   -0.5524   -2.7894 C   0  0  0  0  0  0  0  0  0  0  0  0
   -5.3496    0.6683   -3.1528 C   0  0  0  0  0  0  0  0  0  0  0  0
   -6.6431    0.7677   -3.6739 O   0  0  0  0  0  0  0  0  0  0  0  0
   -4.7617    1.8050   -2.6199 C   0  0  0  0  0  0  0  0  0  0  0  0
   -3.9196    1.7202   -1.5241 C   0  0  0  0  0  0  0  0  0  0  0  0
    0.0571    0.6573   -0.1186 C   0  0  0  0  0  0  0  0  0  0  0  0
    1.3998    0.9218    0.1242 C   0  0  0  0  0  0  0  0  0  0  0  0
    2.3572    0.7855   -0.8736 C   0  0  0  0  0  0  0  0  0  0  0  0
    2.0316    0.2060   -2.0800 C   0  0  0  0  0  0  0  0  0  0  0  0
    2.9202   -0.4922   -2.8706 O   0  0  0  0  0  0  0  0  0  0  0  0
    4.3037   -0.1976   -2.9548 C   0  0  0  0  0  0  0  0  0  0  0  0
    4.8574   -0.3009   -1.5525 C   0  0  0  0  0  0  0  0  0  0  0  0
    6.2855   -0.0953   -1.5502 N   0  0  0  0  0  0  0  0  0  0  0  0
    6.6919    1.0025   -0.7101 C   0  0  0  0  0  0  0  0  0  0  0  0
    6.7287    0.6340    0.7589 C   0  0  0  0  0  0  0  0  0  0  0  0
    7.5412   -0.6185    0.9976 C   0  0  0  0  0  0  0  0  0  0  0  0
    8.1493   -1.0851   -0.2969 C   0  0  0  0  0  0  0  0  0  0  0  0
    7.0059   -1.3099   -1.2691 C   0  0  0  0  0  0  0  0  0  0  0  0
    0.6861    0.0673   -2.3869 C   0  0  0  0  0  0  0  0  0  0  0  0
   -0.2509    0.4153   -1.4520 C   0  0  0  0  0  0  0  0  0  0  0  0
  1  2  2  0
  2  3  1  0
  3  4  1  0
  4  5  2  0
  5  6  1  0
  6  7  2  0
  7  8  1  0
  7  9  1  0
  9 10  2  0
 10 11  1  0
 11 12  1  0
 12 13  1  0
 13 14  2  0
 14 15  1  0
 15 16  2  0
 16 17  1  0
 16 18  1  0
 18 19  2  0
  2 20  1  0
 20 21  2  0
 21 22  1  0
 22 23  2  0
 23 24  1  0
 24 25  1  0
 25 26  1  0
 26 27  1  0
 27 28  1  0
 28 29  1  0
 29 30  1  0
 30 31  1  0
 31 32  1  0
 23 33  1  0
 33 34  2  0
 12  3  2  0
 19 13  1  0
 34 20  1  0
 10  4  1  0
 32 27  1  0
M  END
>  <zinc_id>  (244) 
ZINC000000538275

>  <smiles>  (244) 
O=C(c1ccc(OCCN2CCCCC2)cc1)c1c(-c2ccc(O)cc2)sc2cc(O)ccc12

$$$$

     RDKit          3D

 24 26  0  0  0  0  0  0  0  0999 V2000
    6.2286    1.2699    0.6295 Cl  0  0  0  0  0  0  0  0  0  0  0  0
    5.0841    0.0285    0.3050 C   0  0  0  0  0  0  0  0  0  0  0  0
    4.9389   -0.5327   -0.9588 C   0  0  0  0  0  0  0  0  0  0  0  0
    3.7238   -1.0717   -1.3322 C   0  0  0  0  0  0  0  0  0  0  0  0
    2.5946   -1.0028   -0.5269 C   0  0  0  0  0  0  0  0  0  0  0  0
    1.2145   -1.1073   -1.0623 C   0  0  0  0  0  0  0  0  0  0  0  0
    0.4884   -0.0943   -0.4129 O   0  0  0  0  0  0  0  0  0  0  0  0
   -0.9346   -0.3585   -0.9754 C   0  0  2  0  0  0  0  0  0  0  0  0
   -1.5290    1.0471   -0.2547 C   0  0  0  0  0  0  0  0  0  0  0  0
   -1.5736    1.9836   -1.3772 N   0  0  0  0  0  0  0  0  0  0  0  0
   -0.6864    2.9903   -1.5100 C   0  0  0  0  0  0  0  0  0  0  0  0
   -1.3100    4.1232   -2.0076 C   0  0  0  0  0  0  0  0  0  0  0  0
   -2.5563    3.7214   -2.3472 N   0  0  0  0  0  0  0  0  0  0  0  0
   -2.7370    2.5026   -1.8318 C   0  0  0  0  0  0  0  0  0  0  0  0
   -1.3877   -1.2890    0.3147 C   0  0  0  0  0  0  0  0  0  0  0  0
   -0.9636   -0.8397    1.5261 C   0  0  0  0  0  0  0  0  0  0  0  0
   -1.3731   -1.6129    2.6076 C   0  0  0  0  0  0  0  0  0  0  0  0
   -2.7302   -1.9160    2.6161 C   0  0  0  0  0  0  0  0  0  0  0  0
   -3.6381   -1.7809    4.1233 Cl  0  0  0  0  0  0  0  0  0  0  0  0
   -3.3698   -2.0510    1.3885 C   0  0  0  0  0  0  0  0  0  0  0  0
   -2.7286   -1.6509    0.2215 C   0  0  0  0  0  0  0  0  0  0  0  0
   -3.7152   -1.3234   -1.1797 Cl  0  0  0  0  0  0  0  0  0  0  0  0
    2.8591   -0.7448    0.8127 C   0  0  0  0  0  0  0  0  0  0  0  0
    4.1014   -0.2906    1.2316 C   0  0  0  0  0  0  0  0  0  0  0  0
  1  2  1  0
  2  3  2  0
  3  4  1  0
  4  5  2  0
  5  6  1  0
  6  7  1  0
  8  7  1  1
  8  9  1  0
  9 10  1  0
 10 11  1  0
 11 12  2  0
 12 13  1  0
 13 14  2  0
  8 15  1  0
 15 16  2  0
 16 17  1  0
 17 18  2  0
 18 19  1  0
 18 20  1  0
 20 21  2  0
 21 22  1  0
  5 23  1  0
 23 24  2  0
 24  2  1  0
 14 10  1  0
 21 15  1  0
M  END
>  <zinc_id>  (245) 
ZINC000000596881

>  <smiles>  (245) 
Clc1ccc(CO[C@H](Cn2ccnc2)c2ccc(Cl)cc2Cl)cc1

$$$$

     RDKit          3D

 20 22  0  0  0  0  0  0  0  0999 V2000
    6.1454    0.8818   -0.4036 C   0  0  0  0  0  0  0  0  0  0  0  0
    4.9152    1.4338    0.1562 N   0  0  0  0  0  0  0  0  0  0  0  0
    4.8398    2.8485    0.5040 C   0  0  0  0  0  0  0  0  0  0  0  0
    3.7034    0.7153   -0.0900 C   0  0  0  0  0  0  0  0  0  0  0  0
    3.7017   -0.6722   -0.1158 C   0  0  0  0  0  0  0  0  0  0  0  0
    2.5151   -1.3885   -0.2084 C   0  0  0  0  0  0  0  0  0  0  0  0
    1.2902   -0.7446   -0.0717 C   0  0  0  0  0  0  0  0  0  0  0  0
    0.2311   -1.4941    0.2484 N   0  0  0  0  0  0  0  0  0  0  0  0
   -1.0438   -1.1838    0.0014 C   0  0  0  0  0  0  0  0  0  0  0  0
   -2.0396   -2.1231    0.2462 C   0  0  0  0  0  0  0  0  0  0  0  0
   -3.3492   -1.7392    0.1143 C   0  0  0  0  0  0  0  0  0  0  0  0
   -3.7785   -0.4766   -0.1733 C   0  0  0  0  0  0  0  0  0  0  0  0
   -5.0039   -0.1600    0.0144 N   0  0  0  0  0  0  0  0  0  0  0  0
   -5.5082    1.1809   -0.2568 C   0  0  0  0  0  0  0  0  0  0  0  0
   -5.8509   -0.9956    0.8484 C   0  0  0  0  0  0  0  0  0  0  0  0
   -2.8203    0.4410   -0.5830 C   0  0  0  0  0  0  0  0  0  0  0  0
   -1.4962    0.1733   -0.3315 C   0  0  0  0  0  0  0  0  0  0  0  0
   -0.2348    1.3317   -0.3010 S   0  0  0  0  0  0  0  0  0  0  0  0
    1.3002    0.6426    0.0152 C   0  0  0  0  0  0  0  0  0  0  0  0
    2.4833    1.3287   -0.0038 C   0  0  0  0  0  0  0  0  0  0  0  0
  1  2  1  0
  2  3  1  0
  2  4  1  0
  4  5  2  0
  5  6  1  0
  6  7  2  0
  7  8  1  0
  8  9  2  0
  9 10  1  0
 10 11  2  0
 11 12  1  0
 12 13  2  3
 13 14  1  0
 13 15  1  0
 12 16  1  0
 16 17  2  0
 17 18  1  0
 18 19  1  0
 19 20  2  0
 20  4  1  0
 19  7  1  0
 17  9  1  0
M  CHG  1  13   1
M  END
>  <zinc_id>  (246) 
ZINC000012414057

>  <smiles>  (246) 
CN(C)c1ccc2nc3ccc(=[N+](C)C)cc-3sc2c1

$$$$

     RDKit          3D

 23 25  0  0  0  0  0  0  0  0999 V2000
    6.1031   -0.2504   -0.0758 C   0  0  0  0  0  0  0  0  0  0  0  0
    4.6761   -0.2021    0.3734 C   0  0  0  0  0  0  0  0  0  0  0  0
    3.9729   -1.3129    0.7670 C   0  0  0  0  0  0  0  0  0  0  0  0
    2.5904   -1.3607    0.6321 C   0  0  0  0  0  0  0  0  0  0  0  0
    1.9908   -0.4434   -0.2161 C   0  0  0  0  0  0  0  0  0  0  0  0
    0.6057   -0.5796   -0.6645 C   0  0  0  0  0  0  0  0  0  0  0  0
    0.1004   -1.5956   -1.3861 N   0  0  0  0  0  0  0  0  0  0  0  0
   -1.2131   -1.7593   -1.1247 C   0  0  0  0  0  0  0  0  0  0  0  0
   -2.0142   -2.8779   -1.3196 C   0  0  0  0  0  0  0  0  0  0  0  0
   -3.0713   -3.0503   -0.4347 C   0  0  0  0  0  0  0  0  0  0  0  0
   -3.5931   -1.8889    0.1130 C   0  0  0  0  0  0  0  0  0  0  0  0
   -4.8705   -2.0088    0.8464 C   0  0  0  0  0  0  0  0  0  0  0  0
   -2.7735   -0.7967    0.3574 C   0  0  0  0  0  0  0  0  0  0  0  0
   -1.5739   -0.7670   -0.2729 N   0  0  0  0  0  0  0  0  0  0  0  0
   -0.5106    0.0639   -0.1425 C   0  0  0  0  0  0  0  0  0  0  0  0
   -0.3766    1.1244    0.8990 C   0  0  0  0  0  0  0  0  0  0  0  0
   -1.3746    2.1971    0.7569 C   0  0  0  0  0  0  0  0  0  0  0  0
   -2.1764    2.4020    1.7174 O   0  0  0  0  0  0  0  0  0  0  0  0
   -1.0274    3.3743    0.0177 N   0  0  0  0  0  0  0  0  0  0  0  0
   -0.8141    4.6298    0.7327 C   0  0  0  0  0  0  0  0  0  0  0  0
   -1.1323    3.3540   -1.4397 C   0  0  0  0  0  0  0  0  0  0  0  0
    2.5639    0.8226   -0.2142 C   0  0  0  0  0  0  0  0  0  0  0  0
    3.9183    0.9255    0.0779 C   0  0  0  0  0  0  0  0  0  0  0  0
  1  2  1  0
  2  3  2  0
  3  4  1  0
  4  5  2  0
  5  6  1  0
  6  7  1  0
  7  8  2  0
  8  9  1  0
  9 10  2  0
 10 11  1  0
 11 12  1  0
 11 13  2  0
 13 14  1  0
 14 15  1  0
 15 16  1  0
 16 17  1  0
 17 18  2  0
 17 19  1  0
 19 20  1  0
 19 21  1  0
  5 22  1  0
 22 23  2  0
 23  2  1  0
 15  6  2  0
 14  8  1  0
M  END
>  <zinc_id>  (247) 
ZINC000000003876

>  <smiles>  (247) 
Cc1ccc(-c2nc3ccc(C)cn3c2CC(=O)N(C)C)cc1

$$$$

     RDKit          3D

 19 20  0  0  0  0  0  0  0  0999 V2000
   -0.0764    2.3032   -0.1019 C   0  0  0  0  0  0  0  0  0  0  0  0
   -0.1337    2.2812   -0.0203 N   0  0  0  0  0  0  0  0  0  0  0  0
    0.4830    3.5828    0.2250 C   0  0  0  0  0  0  0  0  0  0  0  0
   -0.8305    1.6951    1.0332 C   0  0  0  0  0  0  0  0  0  0  0  0
   -0.4387    0.1192    1.2132 C   0  0  2  0  0  0  0  0  0  0  0  0
    0.8715    0.1600    0.2822 C   0  0  0  0  0  0  0  0  0  0  0  0
    1.9302    0.6753    1.0279 C   0  0  0  0  0  0  0  0  0  0  0  0
    3.1997    0.1409    0.9806 C   0  0  0  0  0  0  0  0  0  0  0  0
    3.4963   -0.8243    0.0562 C   0  0  0  0  0  0  0  0  0  0  0  0
    4.8176   -1.1326   -0.2012 O   0  0  0  0  0  0  0  0  0  0  0  0
    2.4607   -1.3647   -0.6611 C   0  0  0  0  0  0  0  0  0  0  0  0
    1.1666   -0.9972   -0.3950 C   0  0  0  0  0  0  0  0  0  0  0  0
   -1.4434   -0.3629    0.0149 C   0  0  0  0  0  0  0  0  0  0  0  0
   -1.1319    0.2913   -1.1223 O   0  0  0  0  0  0  0  0  0  0  0  0
   -2.7653    0.0373    0.6200 C   0  0  0  0  0  0  0  0  0  0  0  0
   -3.9569   -0.5450   -0.0597 C   0  0  0  0  0  0  0  0  0  0  0  0
   -3.6570   -1.6559   -1.0178 C   0  0  0  0  0  0  0  0  0  0  0  0
   -2.6329   -2.5505   -0.3856 C   0  0  0  0  0  0  0  0  0  0  0  0
   -1.3590   -1.8531   -0.0509 C   0  0  0  0  0  0  0  0  0  0  0  0
  1  2  1  0
  2  3  1  0
  2  4  1  0
  5  4  1  6
  5  6  1  0
  6  7  2  0
  7  8  1  0
  8  9  2  0
  9 10  1  0
  9 11  1  0
 11 12  2  0
  5 13  1  0
 13 14  1  0
 13 15  1  0
 15 16  1  0
 16 17  1  0
 17 18  1  0
 18 19  1  0
 12  6  1  0
 19 13  1  0
M  END
>  <zinc_id>  (248) 
ZINC000000009342

>  <smiles>  (248) 
CN(C)C[C@H](c1ccc(O)cc1)C1(O)CCCCC1

$$$$

     RDKit          3D

 10  9  0  0  0  0  0  0  0  0999 V2000
   -3.0719   -0.8324    0.5685 C   0  0  0  0  0  0  0  0  0  0  0  0
   -2.0085    0.1069    0.2270 N   0  0  0  0  0  0  0  0  0  0  0  0
   -2.2123    0.5801   -1.1113 C   0  0  0  0  0  0  0  0  0  0  0  0
   -2.0874    1.2495    1.1283 C   0  0  0  0  0  0  0  0  0  0  0  0
   -0.7646   -0.5579    0.4512 C   0  0  0  0  0  0  0  0  0  0  0  0
    0.1698   -0.5749   -0.7146 C   0  0  0  0  0  0  0  0  0  0  0  0
    1.2392    0.3418   -0.6004 O   0  0  0  0  0  0  0  0  0  0  0  0
    2.5340   -0.0982   -0.3276 C   0  0  0  0  0  0  0  0  0  0  0  0
    3.5483    0.8845   -0.2226 N   0  0  0  0  0  0  0  0  0  0  0  0
    2.6534   -1.0993    0.4359 O   0  0  0  0  0  0  0  0  0  0  0  0
  1  2  1  0
  2  3  1  0
  2  4  1  0
  2  5  1  0
  5  6  1  0
  6  7  1  0
  7  8  1  0
  8  9  1  0
  8 10  2  0
M  CHG  1   2   1
M  END
>  <zinc_id>  (249) 
ZINC000003079342

>  <smiles>  (249) 
C[N+](C)(C)CCOC(N)=O

$$$$

     RDKit          3D

 24 25  0  0  0  0  0  0  0  0999 V2000
   -2.3592    0.7532    1.7206 C   0  0  0  0  0  0  0  0  0  0  0  0
   -1.2460    1.1321    0.5806 C   0  0  2  0  0  0  0  0  0  0  0  0
   -2.3956    1.6260   -0.4813 C   0  0  0  0  0  0  0  0  0  0  0  0
   -3.1885    0.4822   -0.9310 C   0  0  0  0  0  0  0  0  0  0  0  0
   -4.4421    0.2105   -0.2462 C   0  0  0  0  0  0  0  0  0  0  0  0
   -4.9168   -1.0958   -0.1484 C   0  0  0  0  0  0  0  0  0  0  0  0
   -5.8425   -1.3980    0.8297 C   0  0  0  0  0  0  0  0  0  0  0  0
   -6.4168   -0.3875    1.5590 C   0  0  0  0  0  0  0  0  0  0  0  0
   -6.2146    0.9112    1.1738 C   0  0  0  0  0  0  0  0  0  0  0  0
   -5.2707    1.1971    0.2045 C   0  0  0  0  0  0  0  0  0  0  0  0
   -1.2426   -0.3604    0.0809 N   0  0  0  0  0  0  0  0  0  0  0  0
   -0.2502   -0.5666   -0.8421 C   0  0  0  0  0  0  0  0  0  0  0  0
    0.9241   -1.5538   -0.2220 C   0  0  2  0  0  0  0  0  0  0  0  0
    0.5803   -1.2468    1.2343 O   0  0  0  0  0  0  0  0  0  0  0  0
    2.0210   -0.3536   -0.2581 C   0  0  0  0  0  0  0  0  0  0  0  0
    2.0599    0.3413   -1.4612 C   0  0  0  0  0  0  0  0  0  0  0  0
    3.1473    1.1094   -1.8082 C   0  0  0  0  0  0  0  0  0  0  0  0
    4.3461    0.7476   -1.2428 C   0  0  0  0  0  0  0  0  0  0  0  0
    5.3961    1.6350   -1.3866 O   0  0  0  0  0  0  0  0  0  0  0  0
    4.3942   -0.2108   -0.2608 C   0  0  0  0  0  0  0  0  0  0  0  0
    5.6696   -0.6807    0.2803 C   0  0  0  0  0  0  0  0  0  0  0  0
    5.9238   -0.5007    1.6754 N   0  0  0  0  0  0  0  0  0  0  0  0
    6.0842   -1.7746   -0.2007 O   0  0  0  0  0  0  0  0  0  0  0  0
    3.2390   -0.8681    0.1502 C   0  0  0  0  0  0  0  0  0  0  0  0
  2  1  1  1
  2  3  1  0
  3  4  1  0
  4  5  1  0
  5  6  2  0
  6  7  1  0
  7  8  2  0
  8  9  1  0
  9 10  2  0
  2 11  1  0
 11 12  1  0
 13 12  1  6
 13 14  1  0
 13 15  1  0
 15 16  2  0
 16 17  1  0
 17 18  2  0
 18 19  1  0
 18 20  1  0
 20 21  1  0
 21 22  1  0
 21 23  2  0
 20 24  2  0
 10  5  1  0
 24 15  1  0
M  END
>  <zinc_id>  (250) 
ZINC000000004319

>  <smiles>  (250) 
C[C@H](CCc1ccccc1)NC[C@H](O)c1ccc(O)c(C(N)=O)c1

$$$$

     RDKit          3D

 12 12  0  0  0  0  0  0  0  0999 V2000
    2.4127   -1.0080   -1.1297 C   0  0  0  0  0  0  0  0  0  0  0  0
    1.8522   -1.5268    0.0611 N   0  0  0  0  0  0  0  0  0  0  0  0
    1.6502   -0.3031    1.0382 C   0  0  1  0  0  0  0  0  0  0  0  0
    3.1711    0.2620    0.7495 C   0  0  0  0  0  0  0  0  0  0  0  0
    0.9753    0.7082   -0.2287 C   0  0  2  0  0  0  0  0  0  0  0  0
    0.9263    1.9050    0.7396 O   0  0  0  0  0  0  0  0  0  0  0  0
   -0.5534    0.2510    0.1674 C   0  0  0  0  0  0  0  0  0  0  0  0
   -0.8260   -0.8335   -0.6701 C   0  0  0  0  0  0  0  0  0  0  0  0
   -2.1656   -1.1990   -0.7378 C   0  0  0  0  0  0  0  0  0  0  0  0
   -3.1457   -0.4356   -0.1138 C   0  0  0  0  0  0  0  0  0  0  0  0
   -2.8158    0.8963    0.1057 C   0  0  0  0  0  0  0  0  0  0  0  0
   -1.4813    1.2834    0.0186 C   0  0  0  0  0  0  0  0  0  0  0  0
  1  2  1  0
  3  2  1  6
  3  4  1  0
  3  5  1  0
  5  6  1  1
  5  7  1  0
  7  8  2  0
  8  9  1  0
  9 10  2  0
 10 11  1  0
 11 12  2  0
 12  7  1  0
M  END
>  <zinc_id>  (251) 
ZINC000000074836

>  <smiles>  (251) 
CN[C@@H](C)[C@H](O)c1ccccc1

$$$$

     RDKit          3D

 27 29  0  0  0  0  0  0  0  0999 V2000
   -4.3100    1.0615   -0.2096 N   0  0  0  0  0  0  0  0  0  0  0  0
   -4.3430    0.8630   -0.2180 S   0  0  0  0  0  0  0  0  0  0  0  0
   -5.0161    1.2077    1.0215 O   0  0  0  0  0  0  0  0  0  0  0  0
   -5.0283    0.9786   -1.4939 O   0  0  0  0  0  0  0  0  0  0  0  0
   -2.8110    0.1238   -0.1628 C   0  0  0  0  0  0  0  0  0  0  0  0
   -1.7074    0.7676    0.3845 C   0  0  0  0  0  0  0  0  0  0  0  0
   -0.4748    0.5467   -0.1609 C   0  0  0  0  0  0  0  0  0  0  0  0
   -0.2491   -0.8025   -0.4665 C   0  0  0  0  0  0  0  0  0  0  0  0
   -1.3269   -1.6049   -0.8345 C   0  0  0  0  0  0  0  0  0  0  0  0
   -2.6197   -1.1988   -0.5229 C   0  0  0  0  0  0  0  0  0  0  0  0
   -3.7674   -2.1424   -0.4796 C   0  0  0  0  0  0  0  0  0  0  0  0
   -4.6641   -1.8357    0.5198 F   0  0  0  0  0  0  0  0  0  0  0  0
   -3.2670   -3.4127   -0.2410 F   0  0  0  0  0  0  0  0  0  0  0  0
   -4.4772   -2.1449   -1.6661 F   0  0  0  0  0  0  0  0  0  0  0  0
    1.0062   -0.9659   -1.0171 N   0  0  0  0  0  0  0  0  0  0  0  0
    2.2980   -0.9872   -0.1146 C   0  0  1  0  0  0  0  0  0  0  0  0
    2.8487    0.4238   -0.7733 C   0  0  0  0  0  0  0  0  0  0  0  0
    4.2148    0.5907   -0.2319 C   0  0  0  0  0  0  0  0  0  0  0  0
    4.9813    1.5608   -0.8181 C   0  0  0  0  0  0  0  0  0  0  0  0
    6.1723    1.9264   -0.2045 C   0  0  0  0  0  0  0  0  0  0  0  0
    6.9110    0.8804    0.3331 C   0  0  0  0  0  0  0  0  0  0  0  0
    6.2016   -0.2200    0.7877 C   0  0  0  0  0  0  0  0  0  0  0  0
    4.8439   -0.3446    0.5461 C   0  0  0  0  0  0  0  0  0  0  0  0
    1.7174   -0.2636    1.1592 N   0  0  0  0  0  0  0  0  0  0  0  0
    0.8899    1.1135    0.8104 S   0  0  0  0  0  0  0  0  0  0  0  0
    0.4073    1.5947    2.1672 O   0  0  0  0  0  0  0  0  0  0  0  0
    1.5697    2.2838    0.2373 O   0  0  0  0  0  0  0  0  0  0  0  0
  1  2  1  0
  2  3  2  0
  2  4  2  0
  2  5  1  0
  5  6  2  0
  6  7  1  0
  7  8  2  0
  8  9  1  0
  9 10  2  0
 10 11  1  0
 11 12  1  0
 11 13  1  0
 11 14  1  0
  8 15  1  0
 15 16  1  0
 16 17  1  6
 17 18  1  0
 18 19  2  0
 19 20  1  0
 20 21  2  0
 21 22  1  0
 22 23  2  0
 16 24  1  0
 24 25  1  0
 25 26  2  0
 25 27  2  0
 10  5  1  0
 23 18  1  0
 25  7  1  0
M  END
>  <zinc_id>  (252) 
ZINC000000601301

>  <smiles>  (252) 
NS(=O)(=O)c1cc2c(cc1C(F)(F)F)N[C@@H](Cc1ccccc1)NS2(=O)=O

$$$$

     RDKit          3D

 30 32  0  0  0  0  0  0  0  0999 V2000
    6.7980    1.1717    0.4317 C   0  0  0  0  0  0  0  0  0  0  0  0
    5.9453    0.6797    0.0112 C   0  0  0  0  0  0  0  0  0  0  0  0
    4.5120    0.6708    0.3117 C   0  0  0  0  0  0  0  0  0  0  0  0
    3.8589   -0.4920    0.2852 C   0  0  0  0  0  0  0  0  0  0  0  0
    4.6097   -1.6445    0.7895 C   0  0  0  0  0  0  0  0  0  0  0  0
    4.0614   -2.4061    1.6348 O   0  0  0  0  0  0  0  0  0  0  0  0
    5.6396   -2.1632    0.0145 O   0  0  0  0  0  0  0  0  0  0  0  0
    2.5179   -0.5664   -0.1321 N   0  0  0  0  0  0  0  0  0  0  0  0
    1.2276   -1.0591    0.0881 C   0  0  0  0  0  0  0  0  0  0  0  0
    0.9368   -2.2994    0.2119 O   0  0  0  0  0  0  0  0  0  0  0  0
    0.7035   -0.3766   -1.2949 C   0  0  1  0  0  0  0  0  0  0  0  0
    0.0206    0.8814   -0.5724 N   0  0  0  0  0  0  0  0  0  0  0  0
   -1.0180    0.5684    0.3039 C   0  0  0  0  0  0  0  0  0  0  0  0
   -0.6333   -0.2068    1.2317 O   0  0  0  0  0  0  0  0  0  0  0  0
   -2.4397    0.7431    0.1285 C   0  0  0  0  0  0  0  0  0  0  0  0
   -3.1573   -0.3407    0.2212 N   0  0  0  0  0  0  0  0  0  0  0  0
   -2.5522   -1.5744    0.2391 O   0  0  0  0  0  0  0  0  0  0  0  0
   -2.9382   -2.5787    1.1628 C   0  0  0  0  0  0  0  0  0  0  0  0
   -3.6079   -3.6644    0.3837 C   0  0  0  0  0  0  0  0  0  0  0  0
   -3.2698   -3.9148   -0.8082 O   0  0  0  0  0  0  0  0  0  0  0  0
   -4.7473   -4.2349    0.9480 O   0  0  0  0  0  0  0  0  0  0  0  0
   -3.0916    2.0615    0.0985 C   0  0  0  0  0  0  0  0  0  0  0  0
   -2.3905    3.2521    0.2637 C   0  0  0  0  0  0  0  0  0  0  0  0
   -3.6021    4.3876   -0.1816 S   0  0  0  0  0  0  0  0  0  0  0  0
   -4.9055    3.2812   -0.3343 C   0  0  0  0  0  0  0  0  0  0  0  0
   -6.2907    3.4971   -0.6323 N   0  0  0  0  0  0  0  0  0  0  0  0
   -4.4005    2.2438    0.3767 N   0  0  0  0  0  0  0  0  0  0  0  0
    2.2850    0.2395   -1.3946 C   0  0  1  0  0  0  0  0  0  0  0  0
    2.1977    1.9127   -0.4784 S   0  0  0  0  0  0  0  0  0  0  0  0
    3.7306    1.9312    0.5012 C   0  0  0  0  0  0  0  0  0  0  0  0
  1  2  2  0
  2  3  1  0
  3  4  2  0
  4  5  1  0
  5  6  2  0
  5  7  1  0
  4  8  1  0
  8  9  1  0
  9 10  2  0
  9 11  1  0
 11 12  1  1
 12 13  1  0
 13 14  2  0
 13 15  1  0
 15 16  2  0
 16 17  1  0
 17 18  1  0
 18 19  1  0
 19 20  2  0
 19 21  1  0
 15 22  1  0
 22 23  2  0
 23 24  1  0
 24 25  1  0
 25 26  1  0
 25 27  2  0
 11 28  1  0
 28 29  1  1
 29 30  1  0
 30  3  1  0
 28  8  1  0
 27 22  1  0
M  END
>  <zinc_id>  (253) 
ZINC000004468778

>  <smiles>  (253) 
C=CC1=C(C(=O)O)N2C(=O)[C@@H](NC(=O)/C(=N\OCC(=O)O)c3csc(N)n3)[C@H]2SC1

$$$$

     RDKit          3D

 30 31  0  0  0  0  0  0  0  0999 V2000
    7.9758   -0.1565    2.3127 C   0  0  0  0  0  0  0  0  0  0  0  0
    8.1979   -0.1126    1.5366 C   0  0  0  0  0  0  0  0  0  0  0  0
    7.0033   -0.5653    0.8146 N   0  0  0  0  0  0  0  0  0  0  0  0
    6.4588    0.2786   -0.1774 C   0  0  0  0  0  0  0  0  0  0  0  0
    7.2741    0.5497   -1.0821 O   0  0  0  0  0  0  0  0  0  0  0  0
    5.0937    0.8789   -0.0660 C   0  0  0  0  0  0  0  0  0  0  0  0
    4.2928   -0.0390    0.8240 C   0  0  0  0  0  0  0  0  0  0  0  0
    3.9715    0.4802    2.1710 C   0  0  0  0  0  0  0  0  0  0  0  0
    2.8305   -0.2901    2.7183 C   0  0  0  0  0  0  0  0  0  0  0  0
    1.7497   -0.5698    1.9730 C   0  0  0  0  0  0  0  0  0  0  0  0
    1.8790   -0.2794    0.5858 C   0  0  0  0  0  0  0  0  0  0  0  0
    0.4982    0.3005   -0.0403 C   0  0  2  0  0  0  0  0  0  0  0  0
    0.0364   -1.2123   -0.5281 C   0  0  1  0  0  0  0  0  0  0  0  0
   -1.5074   -0.8319   -0.2639 C   0  0  0  0  0  0  0  0  0  0  0  0
   -1.8471   -0.1870    0.7269 C   0  0  0  0  0  0  0  0  0  0  0  0
   -3.2477    0.6151    0.8339 C   0  0  1  0  0  0  0  0  0  0  0  0
   -3.6586    0.4263   -0.6287 O   0  0  0  0  0  0  0  0  0  0  0  0
   -4.0438   -0.7199    1.4039 C   0  0  0  0  0  0  0  0  0  0  0  0
   -5.0029   -1.1936    0.4678 C   0  0  0  0  0  0  0  0  0  0  0  0
   -6.0381   -0.2776   -0.0226 C   0  0  0  0  0  0  0  0  0  0  0  0
   -6.6156   -0.5333   -1.2434 C   0  0  0  0  0  0  0  0  0  0  0  0
   -7.4521    0.3946   -1.8087 C   0  0  0  0  0  0  0  0  0  0  0  0
   -7.6671    1.5874   -1.1441 C   0  0  0  0  0  0  0  0  0  0  0  0
   -7.4429    1.6034    0.2066 C   0  0  0  0  0  0  0  0  0  0  0  0
   -6.6524    0.6401    0.7942 C   0  0  0  0  0  0  0  0  0  0  0  0
   -0.3279   -1.0492   -2.1807 C   0  0  2  0  0  0  0  0  0  0  0  0
    1.0015   -1.5086   -2.7825 O   0  0  0  0  0  0  0  0  0  0  0  0
   -0.0846    0.5392   -2.2968 C   0  0  0  0  0  0  0  0  0  0  0  0
    1.2659    0.8308   -1.4431 C   0  0  2  0  0  0  0  0  0  0  0  0
    2.0595   -0.4442   -1.6610 O   0  0  0  0  0  0  0  0  0  0  0  0
  1  2  1  0
  2  3  1  0
  3  4  1  0
  4  5  2  0
  4  6  1  0
  6  7  1  0
  7  8  1  0
  8  9  1  0
  9 10  2  0
 10 11  1  0
 12 11  1  1
 12 13  1  0
 13 14  1  1
 14 15  2  0
 16 15  1  6
 16 17  1  0
 16 18  1  0
 18 19  1  0
 19 20  1  0
 20 21  2  0
 21 22  1  0
 22 23  2  0
 23 24  1  0
 24 25  2  0
 13 26  1  0
 26 27  1  6
 26 28  1  0
 28 29  1  0
 29 30  1  6
 29 12  1  0
 25 20  1  0
M  END
>  <zinc_id>  (254) 
ZINC000004474405

>  <smiles>  (254) 
CCNC(=O)CCC/C=C\C[C@H]1[C@@H](O)C[C@@H](O)[C@@H]1/C=C/[C@@H](O)CCc1ccccc1

$$$$

     RDKit          3D

 24 26  0  0  0  0  0  0  0  0999 V2000
    7.4400    0.3064    0.4153 C   0  0  0  0  0  0  0  0  0  0  0  0
    6.8115    0.3336    0.3615 O   0  0  0  0  0  0  0  0  0  0  0  0
    5.4315    0.3840    0.2192 C   0  0  0  0  0  0  0  0  0  0  0  0
    4.8691    1.5822   -0.1362 C   0  0  0  0  0  0  0  0  0  0  0  0
    3.5760    1.5926   -0.5927 C   0  0  0  0  0  0  0  0  0  0  0  0
    2.8732    0.3995   -0.6917 C   0  0  0  0  0  0  0  0  0  0  0  0
    1.5738    0.1235   -0.9448 N   0  0  0  0  0  0  0  0  0  0  0  0
    1.2355   -0.9416   -0.1771 C   0  0  0  0  0  0  0  0  0  0  0  0
   -0.4710   -1.5442   -0.2085 S   0  0  0  0  0  0  0  0  0  0  0  0
   -0.3587   -2.8338    0.6574 O   0  0  0  0  0  0  0  0  0  0  0  0
   -1.2179   -0.4068    1.0330 C   0  0  0  0  0  0  0  0  0  0  0  0
   -2.3510    0.3257    0.4400 C   0  0  0  0  0  0  0  0  0  0  0  0
   -2.1685    1.2364   -0.5210 N   0  0  0  0  0  0  0  0  0  0  0  0
   -3.1952    1.8208   -1.1448 C   0  0  0  0  0  0  0  0  0  0  0  0
   -4.4698    1.3999   -0.8593 C   0  0  0  0  0  0  0  0  0  0  0  0
   -5.6035    2.3080   -1.1985 C   0  0  0  0  0  0  0  0  0  0  0  0
   -4.7051    0.3441   -0.0141 C   0  0  0  0  0  0  0  0  0  0  0  0
   -5.9668   -0.1356    0.2616 O   0  0  0  0  0  0  0  0  0  0  0  0
   -6.2881   -1.5028    0.1890 C   0  0  0  0  0  0  0  0  0  0  0  0
   -3.6177   -0.2017    0.6491 C   0  0  0  0  0  0  0  0  0  0  0  0
   -3.7899   -1.4593    1.4018 C   0  0  0  0  0  0  0  0  0  0  0  0
    2.3579   -1.6464   -0.0557 N   0  0  0  0  0  0  0  0  0  0  0  0
    3.3611   -0.7353   -0.0632 C   0  0  0  0  0  0  0  0  0  0  0  0
    4.6737   -0.7491    0.3552 C   0  0  0  0  0  0  0  0  0  0  0  0
  1  2  1  0
  2  3  1  0
  3  4  2  0
  4  5  1  0
  5  6  2  0
  6  7  1  0
  7  8  2  0
  9  8  1  1
  9 10  2  0
  9 11  1  0
 11 12  1  0
 12 13  2  0
 13 14  1  0
 14 15  2  0
 15 16  1  0
 15 17  1  0
 17 18  1  0
 18 19  1  0
 17 20  2  0
 20 21  1  0
  8 22  1  0
 22 23  1  0
 23 24  2  0
 24  3  1  0
 23  6  1  0
 20 12  1  0
M  END
>  <zinc_id>  (255) 
ZINC000004693575

>  <smiles>  (255) 
COc1ccc2nc([S@@](=O)Cc3ncc(C)c(OC)c3C)[nH]c2c1

$$$$

     RDKit          3D

 16 16  0  0  0  0  0  0  0  0999 V2000
   -0.9054    1.1273    0.7036 C   0  0  0  0  0  0  0  0  0  0  0  0
   -1.0296    0.0831   -0.5713 C   0  0  2  0  0  0  0  0  0  0  0  0
   -2.3469   -0.5674    0.0207 N   0  0  0  0  0  0  0  0  0  0  0  0
   -3.4141    0.3394   -0.2753 C   0  0  0  0  0  0  0  0  0  0  0  0
   -4.6188   -0.4525   -0.7708 C   0  0  0  0  0  0  0  0  0  0  0  0
   -3.8566    0.9413    1.0535 C   0  0  0  0  0  0  0  0  0  0  0  0
   -3.0361    1.4284   -1.2460 C   0  0  0  0  0  0  0  0  0  0  0  0
   -0.0921   -1.0195    0.1614 C   0  0  0  0  0  0  0  0  0  0  0  0
   -0.3684   -2.1862   -0.2531 O   0  0  0  0  0  0  0  0  0  0  0  0
    1.3267   -0.6424    0.1990 C   0  0  0  0  0  0  0  0  0  0  0  0
    2.2558   -1.6627    0.3196 C   0  0  0  0  0  0  0  0  0  0  0  0
    3.6031   -1.3777    0.2169 C   0  0  0  0  0  0  0  0  0  0  0  0
    4.0139   -0.0834    0.0464 C   0  0  0  0  0  0  0  0  0  0  0  0
    3.0983    0.9148    0.2554 C   0  0  0  0  0  0  0  0  0  0  0  0
    3.6055    2.5414   -0.1840 Cl  0  0  0  0  0  0  0  0  0  0  0  0
    1.7648    0.6160    0.5073 C   0  0  0  0  0  0  0  0  0  0  0  0
  2  1  1  1
  2  3  1  0
  3  4  1  0
  4  5  1  0
  4  6  1  0
  4  7  1  0
  2  8  1  0
  8  9  2  0
  8 10  1  0
 10 11  2  0
 11 12  1  0
 12 13  2  0
 13 14  1  0
 14 15  1  0
 14 16  2  0
 16 10  1  0
M  END
>  <zinc_id>  (256) 
ZINC000000020228

>  <smiles>  (256) 
C[C@H](NC(C)(C)C)C(=O)c1cccc(Cl)c1

$$$$

     RDKit          3D

 27 29  0  0  0  0  0  0  0  0999 V2000
    7.3076   -0.3556   -2.3268 C   0  0  0  0  0  0  0  0  0  0  0  0
    7.2283   -0.3339   -1.2909 C   0  0  0  0  0  0  0  0  0  0  0  0
    6.6402    0.8390   -0.5513 C   0  0  0  0  0  0  0  0  0  0  0  0
    5.5206    1.4895   -1.3125 C   0  0  0  0  0  0  0  0  0  0  0  0
    4.4196    0.5135   -1.5858 C   0  0  0  0  0  0  0  0  0  0  0  0
    3.5105    0.3409   -0.3767 C   0  0  0  0  0  0  0  0  0  0  0  0
    2.3958   -0.5525   -0.8645 C   0  0  0  0  0  0  0  0  0  0  0  0
    1.7970   -0.0130   -2.1665 C   0  0  0  0  0  0  0  0  0  0  0  0
    2.7884   -1.9929   -0.9517 C   0  0  0  0  0  0  0  0  0  0  0  0
    1.2896   -0.5271    0.1468 C   0  0  0  0  0  0  0  0  0  0  0  0
    0.9496    0.7407    0.5922 C   0  0  0  0  0  0  0  0  0  0  0  0
   -0.3606    0.9598    0.9353 C   0  0  0  0  0  0  0  0  0  0  0  0
   -0.4773    2.0680    1.8009 O   0  0  0  0  0  0  0  0  0  0  0  0
   -1.3193   -0.0869    1.0494 C   0  0  0  0  0  0  0  0  0  0  0  0
   -1.0481   -1.2121    0.4440 C   0  0  0  0  0  0  0  0  0  0  0  0
    0.2715   -1.4157    0.0069 C   0  0  0  0  0  0  0  0  0  0  0  0
   -2.0800   -1.6556   -0.2704 O   0  0  0  0  0  0  0  0  0  0  0  0
   -3.0325   -0.6768   -0.8498 C   0  0  0  0  0  0  0  0  0  0  0  0
   -3.1031   -0.5014   -2.1934 C   0  0  0  0  0  0  0  0  0  0  0  0
   -4.0776   -1.8628   -0.6584 C   0  0  0  0  0  0  0  0  0  0  0  0
   -3.8275   -0.0409    0.3622 C   0  0  2  0  0  0  0  0  0  0  0  0
   -4.2638    1.4802   -0.1411 C   0  0  0  0  0  0  0  0  0  0  0  0
   -4.6191    2.1229    1.2424 C   0  0  0  0  0  0  0  0  0  0  0  0
   -4.4971    1.0916    2.3471 C   0  0  0  0  0  0  0  0  0  0  0  0
   -5.5315    0.6857    2.8018 O   0  0  0  0  0  0  0  0  0  0  0  0
   -3.2718    0.1918    2.6016 C   0  0  0  0  0  0  0  0  0  0  0  0
   -2.6095    0.8241    1.2092 C   0  0  1  0  0  0  0  0  0  0  0  0
  1  2  1  0
  2  3  1  0
  3  4  1  0
  4  5  1  0
  5  6  1  0
  6  7  1  0
  7  8  1  0
  7  9  1  0
  7 10  1  0
 10 11  2  0
 11 12  1  0
 12 13  1  0
 12 14  2  0
 14 15  1  0
 15 16  2  0
 15 17  1  0
 17 18  1  0
 18 19  1  0
 18 20  1  0
 21 18  1  6
 21 22  1  0
 22 23  1  0
 23 24  1  0
 24 25  2  0
 24 26  1  0
 27 26  1  1
 16 10  1  0
 27 21  1  0
 27 14  1  0
M  END
>  <zinc_id>  (257) 
ZINC000001542930

>  <smiles>  (257) 
CCCCCCC(C)(C)c1cc(O)c2c(c1)OC(C)(C)[C@@H]1CCC(=O)C[C@@H]21

$$$$

     RDKit          3D

 40 44  0  0  0  0  0  0  0  0999 V2000
   10.5721    2.2433   -1.7695 C   0  0  0  0  0  0  0  0  0  0  0  0
    9.3930    1.9963   -0.4610 S   0  0  0  0  0  0  0  0  0  0  0  0
    8.8147    0.6267   -0.5835 O   0  0  0  0  0  0  0  0  0  0  0  0
   10.1266    2.1306    0.8320 O   0  0  0  0  0  0  0  0  0  0  0  0
    8.1105    3.1952   -0.6544 C   0  0  0  0  0  0  0  0  0  0  0  0
    6.7407    2.6418   -0.3758 C   0  0  0  0  0  0  0  0  0  0  0  0
    6.3835    2.7022    1.0304 N   0  0  0  0  0  0  0  0  0  0  0  0
    6.3706    1.3980    1.6547 C   0  0  0  0  0  0  0  0  0  0  0  0
    5.2354    0.6042    1.0879 C   0  0  0  0  0  0  0  0  0  0  0  0
    4.9053    0.6357   -0.2611 C   0  0  0  0  0  0  0  0  0  0  0  0
    4.3559   -0.6045   -0.5632 C   0  0  0  0  0  0  0  0  0  0  0  0
    4.0297   -1.1447    0.6746 C   0  0  0  0  0  0  0  0  0  0  0  0
    2.9270   -2.0621    0.9908 C   0  0  0  0  0  0  0  0  0  0  0  0
    3.0856   -3.4335    0.8327 C   0  0  0  0  0  0  0  0  0  0  0  0
    2.0232   -4.1981    0.3662 C   0  0  0  0  0  0  0  0  0  0  0  0
    0.7958   -3.6406    0.0500 C   0  0  0  0  0  0  0  0  0  0  0  0
    0.0449   -4.0590   -0.9864 N   0  0  0  0  0  0  0  0  0  0  0  0
   -0.8279   -3.2475   -1.6316 C   0  0  0  0  0  0  0  0  0  0  0  0
   -1.3342   -2.2277   -0.8979 N   0  0  0  0  0  0  0  0  0  0  0  0
   -0.6438   -1.7910    0.1828 C   0  0  0  0  0  0  0  0  0  0  0  0
   -0.9087   -0.4681    0.6618 N   0  0  0  0  0  0  0  0  0  0  0  0
   -2.2231    0.0785    0.5036 C   0  0  0  0  0  0  0  0  0  0  0  0
   -2.5027    0.6936   -0.7105 C   0  0  0  0  0  0  0  0  0  0  0  0
   -3.7938    0.7648   -1.2150 C   0  0  0  0  0  0  0  0  0  0  0  0
   -4.7821    0.0144   -0.5953 C   0  0  0  0  0  0  0  0  0  0  0  0
   -5.9499   -0.3333   -1.2452 O   0  0  0  0  0  0  0  0  0  0  0  0
   -6.8306    0.6149   -1.8114 C   0  0  0  0  0  0  0  0  0  0  0  0
   -7.3473    1.5554   -0.7787 C   0  0  0  0  0  0  0  0  0  0  0  0
   -6.5183    2.1682    0.1511 C   0  0  0  0  0  0  0  0  0  0  0  0
   -6.9564    2.4396    1.4341 C   0  0  0  0  0  0  0  0  0  0  0  0
   -8.2930    2.2563    1.7251 C   0  0  0  0  0  0  0  0  0  0  0  0
   -9.1997    2.0364    0.7024 C   0  0  0  0  0  0  0  0  0  0  0  0
  -10.5036    1.8751    1.0099 F   0  0  0  0  0  0  0  0  0  0  0  0
   -8.7080    1.6907   -0.5471 C   0  0  0  0  0  0  0  0  0  0  0  0
   -4.5637   -0.5465    0.6539 C   0  0  0  0  0  0  0  0  0  0  0  0
   -5.7841   -1.5964    1.3658 Cl  0  0  0  0  0  0  0  0  0  0  0  0
   -3.3096   -0.4122    1.2045 C   0  0  0  0  0  0  0  0  0  0  0  0
    0.5597   -2.3699    0.5581 C   0  0  0  0  0  0  0  0  0  0  0  0
    1.6105   -1.6252    1.0769 C   0  0  0  0  0  0  0  0  0  0  0  0
    4.8959   -0.6022    1.5037 O   0  0  0  0  0  0  0  0  0  0  0  0
  1  2  1  0
  2  3  2  0
  2  4  2  0
  2  5  1  0
  5  6  1  0
  6  7  1  0
  7  8  1  0
  8  9  1  0
  9 10  2  0
 10 11  1  0
 11 12  2  0
 12 13  1  0
 13 14  2  0
 14 15  1  0
 15 16  2  0
 16 17  1  0
 17 18  2  0
 18 19  1  0
 19 20  2  0
 20 21  1  0
 21 22  1  0
 22 23  2  0
 23 24  1  0
 24 25  2  0
 25 26  1  0
 26 27  1  0
 27 28  1  0
 28 29  2  0
 29 30  1  0
 30 31  2  0
 31 32  1  0
 32 33  1  0
 32 34  2  0
 25 35  1  0
 35 36  1  0
 35 37  2  0
 20 38  1  0
 38 39  2  0
 12 40  1  0
 40  9  1  0
 39 13  1  0
 38 16  1  0
 37 22  1  0
 34 28  1  0
M  END
>  <zinc_id>  (258) 
ZINC000001550477

>  <smiles>  (258) 
CS(=O)(=O)CCNCc1ccc(-c2ccc3ncnc(Nc4ccc(OCc5cccc(F)c5)c(Cl)c4)c3c2)o1

$$$$

     RDKit          3D

 33 37  0  0  0  0  0  0  0  0999 V2000
    7.8004    3.5300    0.7188 N   0  0  0  0  0  0  0  0  0  0  0  0
    7.3688    2.5378    0.3185 C   0  0  0  0  0  0  0  0  0  0  0  0
    6.5261    1.5176   -0.2611 C   0  0  0  0  0  0  0  0  0  0  0  0
    6.9287    0.9339   -1.4528 C   0  0  0  0  0  0  0  0  0  0  0  0
    6.5197   -0.3404   -1.7940 C   0  0  0  0  0  0  0  0  0  0  0  0
    5.7402   -1.0433   -0.8890 C   0  0  0  0  0  0  0  0  0  0  0  0
    5.6334   -2.3739   -0.7152 N   0  0  0  0  0  0  0  0  0  0  0  0
    4.6317   -2.5299    0.1634 C   0  0  0  0  0  0  0  0  0  0  0  0
    4.5499   -1.3818    0.9405 C   0  0  0  0  0  0  0  0  0  0  0  0
    3.3933   -1.1176    1.8521 C   0  0  0  0  0  0  0  0  0  0  0  0
    2.1541   -1.8343    1.3295 C   0  0  0  0  0  0  0  0  0  0  0  0
    0.9933   -0.8503    1.3426 C   0  0  0  0  0  0  0  0  0  0  0  0
    1.4098    0.3453    0.5305 C   0  0  0  0  0  0  0  0  0  0  0  0
    0.5802    0.5642   -0.6276 N   0  0  0  0  0  0  0  0  0  0  0  0
    0.3387   -0.6320   -1.3939 C   0  0  0  0  0  0  0  0  0  0  0  0
   -0.7086   -1.5273   -0.7785 C   0  0  0  0  0  0  0  0  0  0  0  0
   -1.8187   -0.7899   -0.2378 N   0  0  0  0  0  0  0  0  0  0  0  0
   -3.1709   -1.2632   -0.2601 C   0  0  0  0  0  0  0  0  0  0  0  0
   -3.6761   -1.9089    0.8622 C   0  0  0  0  0  0  0  0  0  0  0  0
   -4.9939   -1.7114    1.2570 C   0  0  0  0  0  0  0  0  0  0  0  0
   -5.7923   -0.7498    0.6496 C   0  0  0  0  0  0  0  0  0  0  0  0
   -6.6623    0.1380    1.0670 O   0  0  0  0  0  0  0  0  0  0  0  0
   -7.0302    0.9403    0.1037 C   0  0  0  0  0  0  0  0  0  0  0  0
   -7.7769    2.1916    0.2881 C   0  0  0  0  0  0  0  0  0  0  0  0
   -7.1406    3.1762    1.1118 N   0  0  0  0  0  0  0  0  0  0  0  0
   -8.3396    2.6501   -0.7518 O   0  0  0  0  0  0  0  0  0  0  0  0
   -6.4080    0.4764   -1.0493 C   0  0  0  0  0  0  0  0  0  0  0  0
   -5.4039   -0.3885   -0.6351 C   0  0  0  0  0  0  0  0  0  0  0  0
   -4.1319   -0.7058   -1.0956 C   0  0  0  0  0  0  0  0  0  0  0  0
   -1.5000    0.3822    0.5731 C   0  0  0  0  0  0  0  0  0  0  0  0
   -0.6266    1.2763   -0.2817 C   0  0  0  0  0  0  0  0  0  0  0  0
    5.0665   -0.3836    0.1240 C   0  0  0  0  0  0  0  0  0  0  0  0
    5.5456    0.8721    0.4762 C   0  0  0  0  0  0  0  0  0  0  0  0
  1  2  3  0
  2  3  1  0
  3  4  2  0
  4  5  1  0
  5  6  2  0
  6  7  1  0
  7  8  1  0
  8  9  2  0
  9 10  1  0
 10 11  1  0
 11 12  1  0
 12 13  1  0
 13 14  1  0
 14 15  1  0
 15 16  1  0
 16 17  1  0
 17 18  1  0
 18 19  2  0
 19 20  1  0
 20 21  2  0
 21 22  1  0
 22 23  1  0
 23 24  1  0
 24 25  1  0
 24 26  2  0
 23 27  2  0
 27 28  1  0
 28 29  2  0
 17 30  1  0
 30 31  1  0
  9 32  1  0
 32 33  2  0
 33  3  1  0
 32  6  1  0
 31 14  1  0
 29 18  1  0
 28 21  1  0
M  END
>  <zinc_id>  (259) 
ZINC000001542113

>  <smiles>  (259) 
N#Cc1ccc2[nH]cc(CCCCN3CCN(c4ccc5oc(C(N)=O)cc5c4)CC3)c2c1

$$$$

     RDKit          3D

 20 23  0  0  0  0  0  0  0  0999 V2000
   -2.7988    1.7993    1.1942 C   0  0  0  0  0  0  0  0  0  0  0  0
   -2.4661    1.8877   -0.1670 N   0  0  0  0  0  0  0  0  0  0  0  0
   -1.5604    2.9353   -0.5027 C   0  0  0  0  0  0  0  0  0  0  0  0
   -0.2727    2.4801    0.1357 C   0  0  0  0  0  0  0  0  0  0  0  0
   -0.1796    1.0147    0.1584 N   0  0  0  0  0  0  0  0  0  0  0  0
    1.2307    0.7661    0.3368 C   0  0  0  0  0  0  0  0  0  0  0  0
    1.9260    1.8696    0.7039 N   0  0  0  0  0  0  0  0  0  0  0  0
    3.2720    1.9298    0.7103 C   0  0  0  0  0  0  0  0  0  0  0  0
    4.0143    0.9030    0.1890 C   0  0  0  0  0  0  0  0  0  0  0  0
    3.3980   -0.3292    0.1301 C   0  0  0  0  0  0  0  0  0  0  0  0
    2.0102   -0.3324    0.0687 C   0  0  0  0  0  0  0  0  0  0  0  0
    1.5594   -1.7303   -0.0635 C   0  0  0  0  0  0  0  0  0  0  0  0
    0.0743   -1.8095    0.1238 C   0  0  0  0  0  0  0  0  0  0  0  0
   -0.2970   -3.0510    0.6385 C   0  0  0  0  0  0  0  0  0  0  0  0
   -1.6246   -3.4613    0.5448 C   0  0  0  0  0  0  0  0  0  0  0  0
   -2.2743   -3.0126   -0.6027 C   0  0  0  0  0  0  0  0  0  0  0  0
   -1.9548   -1.7650   -1.1378 C   0  0  0  0  0  0  0  0  0  0  0  0
   -0.9194   -1.1180   -0.4704 C   0  0  0  0  0  0  0  0  0  0  0  0
   -0.7724    0.3452   -1.1735 C   0  0  1  0  0  0  0  0  0  0  0  0
   -2.3646    0.6784   -0.8167 C   0  0  0  0  0  0  0  0  0  0  0  0
  1  2  1  0
  2  3  1  0
  3  4  1  0
  4  5  1  0
  5  6  1  0
  6  7  2  0
  7  8  1  0
  8  9  2  0
  9 10  1  0
 10 11  2  0
 11 12  1  0
 12 13  1  0
 13 14  2  0
 14 15  1  0
 15 16  2  0
 16 17  1  0
 17 18  2  0
 19 18  1  1
 19 20  1  0
 20  2  1  0
 19  5  1  0
 11  6  1  0
 18 13  1  0
M  END
>  <zinc_id>  (260) 
ZINC000000968310

>  <smiles>  (260) 
CN1CCN2c3ncccc3Cc3ccccc3[C@H]2C1

$$$$

     RDKit          3D

 33 35  0  0  0  0  0  0  0  0999 V2000
   -6.3104   -2.5433    0.0625 C   0  0  0  0  0  0  0  0  0  0  0  0
   -6.4232   -1.7948    0.1115 N   0  0  0  0  0  0  0  0  0  0  0  0
   -5.6933   -0.7823   -0.8334 C   0  0  2  0  0  0  0  0  0  0  0  0
   -4.4503   -1.8378   -1.0240 C   0  0  0  0  0  0  0  0  0  0  0  0
   -5.0311    0.0534    0.5284 C   0  0  2  0  0  0  0  0  0  0  0  0
   -5.5057    1.5148   -0.0453 C   0  0  0  0  0  0  0  0  0  0  0  0
   -4.7229    2.5952    0.6509 C   0  0  0  0  0  0  0  0  0  0  0  0
   -3.1360    2.5097    0.2015 C   0  0  2  0  0  0  0  0  0  0  0  0
   -3.5801    2.1234   -1.2439 N   0  0  0  0  0  0  0  0  0  0  0  0
   -3.1408    0.9664    1.0073 C   0  0  2  0  0  0  0  0  0  0  0  0
   -1.7676    0.4672    0.6961 O   0  0  0  0  0  0  0  0  0  0  0  0
   -0.9410    1.3699   -0.1022 C   0  0  2  0  0  0  0  0  0  0  0  0
   -1.3383    0.6243   -1.6124 C   0  0  2  0  0  0  0  0  0  0  0  0
   -1.3300   -0.9025   -1.2385 N   0  0  0  0  0  0  0  0  0  0  0  0
    0.0017    0.8371   -2.4282 C   0  0  0  0  0  0  0  0  0  0  0  0
    1.4833    0.4532   -2.0571 C   0  0  2  0  0  0  0  0  0  0  0  0
    1.2772   -1.0559   -1.7588 N   0  0  0  0  0  0  0  0  0  0  0  0
    1.4474    1.2990   -0.5749 C   0  0  2  0  0  0  0  0  0  0  0  0
    2.6339    0.6971    0.1049 O   0  0  0  0  0  0  0  0  0  0  0  0
    2.7646   -0.7685   -0.1764 C   0  0  2  0  0  0  0  0  0  0  0  0
    2.9693   -1.2798    1.2293 O   0  0  0  0  0  0  0  0  0  0  0  0
    3.5908   -0.6334    2.0732 C   0  0  0  0  0  0  0  0  0  0  0  0
    4.9453   -0.8668    1.8244 C   0  0  2  0  0  0  0  0  0  0  0  0
    5.7180   -2.0839    1.9857 C   0  0  0  0  0  0  0  0  0  0  0  0
    5.6009    0.0277    2.7116 O   0  0  0  0  0  0  0  0  0  0  0  0
    5.4706   -0.1870    0.4568 C   0  0  2  0  0  0  0  0  0  0  0  0
    4.7742    1.1666    0.7501 N   0  0  0  0  0  0  0  0  0  0  0  0
    4.7888    1.1181    0.5941 C   0  0  0  0  0  0  0  0  0  0  0  0
    4.4127   -0.7723   -0.7397 C   0  0  1  0  0  0  0  0  0  0  0  0
    4.6142   -2.2068   -0.2587 O   0  0  0  0  0  0  0  0  0  0  0  0
    0.3931    0.4099    0.4198 C   0  0  2  0  0  0  0  0  0  0  0  0
    0.1922   -0.6984   -0.4615 O   0  0  0  0  0  0  0  0  0  0  0  0
   -3.7076    0.1802   -0.1808 O   0  0  0  0  0  0  0  0  0  0  0  0
  1  2  1  0
  3  2  1  1
  3  4  1  0
  3  5  1  0
  5  6  1  6
  6  7  1  0
  7  8  1  0
  8  9  1  6
  8 10  1  0
 10 11  1  6
 12 11  1  1
 12 13  1  0
 13 14  1  1
 13 15  1  0
 15 16  1  0
 16 17  1  1
 16 18  1  0
 18 19  1  1
 20 19  1  1
 20 21  1  0
 21 22  1  0
 22 23  1  0
 23 24  1  1
 23 25  1  0
 23 26  1  0
 26 27  1  1
 27 28  1  0
 26 29  1  0
 29 30  1  1
 18 31  1  0
 31 32  1  6
 10 33  1  0
 33  5  1  0
 31 12  1  0
 29 20  1  0
M  END
>  <zinc_id>  (261) 
ZINC000242437511

>  <smiles>  (261) 
CN[C@H](C)[C@@H]1CC[C@H](N)[C@H](O[C@@H]2[C@H](N)C[C@H](N)[C@H](O[C@@H]3OC[C@](C)(O)[C@H](NC)[C@H]3O)[C@@H]2O)O1

$$$$

     RDKit          3D

 26 31  0  0  0  0  0  0  0  0999 V2000
    3.0858    1.3016    1.0646 C   0  0  0  0  0  0  0  0  0  0  0  0
    2.3698    0.3861    0.3710 N   0  0  2  0  0  0  0  0  0  0  0  0
    3.1839   -0.8344    0.3676 C   0  0  0  0  0  0  0  0  0  0  0  0
    4.0888   -0.7259   -0.8271 C   0  0  0  0  0  0  0  0  0  0  0  0
    5.1984    0.2942   -0.6613 C   0  0  0  0  0  0  0  0  0  0  0  0
    5.4932   -1.1616   -0.8065 C   0  0  0  0  0  0  0  0  0  0  0  0
    1.9310    0.6624   -0.8527 C   0  0  0  0  0  0  0  0  0  0  0  0
    0.7002    0.3335   -1.4991 C   0  0  0  0  0  0  0  0  0  0  0  0
   -0.3943    0.4592   -0.5037 C   0  0  1  0  0  0  0  0  0  0  0  0
   -1.1731   -0.7112   -0.2552 C   0  0  0  0  0  0  0  0  0  0  0  0
   -2.4673   -0.5801   -0.6108 C   0  0  0  0  0  0  0  0  0  0  0  0
   -3.1905   -1.7386   -0.3375 C   0  0  0  0  0  0  0  0  0  0  0  0
   -4.5651   -1.6001   -0.5455 O   0  0  0  0  0  0  0  0  0  0  0  0
   -2.6593   -2.7369    0.4775 C   0  0  0  0  0  0  0  0  0  0  0  0
   -1.3410   -2.6662    0.9407 C   0  0  0  0  0  0  0  0  0  0  0  0
   -0.6584   -1.4672    0.7850 C   0  0  0  0  0  0  0  0  0  0  0  0
    0.8336   -1.3527    0.6388 C   0  0  0  0  0  0  0  0  0  0  0  0
    1.2193    0.0612    1.3925 C   0  0  2  0  0  0  0  0  0  0  0  0
    0.1183    1.0452    0.6862 C   0  0  1  0  0  0  0  0  0  0  0  0
    0.7445    2.2918    0.5984 O   0  0  0  0  0  0  0  0  0  0  0  0
   -0.8159    1.2170    1.8801 C   0  0  0  0  0  0  0  0  0  0  0  0
   -1.7949    2.2769    1.3731 C   0  0  0  0  0  0  0  0  0  0  0  0
   -2.4230    1.5454    0.2484 C   0  0  0  0  0  0  0  0  0  0  0  0
   -3.5519    1.9229   -0.0664 O   0  0  0  0  0  0  0  0  0  0  0  0
   -1.5315    1.4709   -1.1124 C   0  0  2  0  0  0  0  0  0  0  0  0
   -2.4007    0.3065   -1.6789 O   0  0  0  0  0  0  0  0  0  0  0  0
  2  1  1  1
  2  3  1  0
  3  4  1  0
  4  5  1  0
  5  6  1  0
  2  7  1  0
  7  8  1  0
  9  8  1  6
  9 10  1  0
 10 11  2  0
 11 12  1  0
 12 13  1  0
 12 14  2  0
 14 15  1  0
 15 16  2  0
 16 17  1  0
 18 17  1  6
 18 19  1  0
 19 20  1  6
 19 21  1  0
 21 22  1  0
 22 23  1  0
 23 24  2  0
 25 23  1  1
 25 26  1  0
 18  2  1  0
  6  4  1  0
 19  9  1  0
 25  9  1  0
 16 10  1  0
 26 11  1  0
M  CHG  1   2   1
M  END
>  <zinc_id>  (262) 
ZINC000245204949

>  <smiles>  (262) 
C[N@+]1(CC2CC2)CC[C@]23c4c5ccc(O)c4O[C@H]2C(=O)CC[C@@]3(O)[C@H]1C5

$$$$

     RDKit          3D

 34 34  0  0  0  0  0  0  0  0999 V2000
   -2.2501    2.5110    0.7279 C   0  0  0  0  0  0  0  0  0  0  0  0
   -2.1965    2.5467    0.8513 C   0  0  0  0  0  0  0  0  0  0  0  0
   -3.3357    2.3583    1.0245 O   0  0  0  0  0  0  0  0  0  0  0  0
   -1.0974    2.5063    0.0607 N   0  0  0  0  0  0  0  0  0  0  0  0
   -0.6012    3.8046   -0.4010 C   0  0  0  0  0  0  0  0  0  0  0  0
   -1.9705    4.4835   -1.0260 C   0  0  2  0  0  0  0  0  0  0  0  0
   -1.1810    5.6552   -1.5853 O   0  0  0  0  0  0  0  0  0  0  0  0
   -2.2898    5.2991    0.3723 C   0  0  0  0  0  0  0  0  0  0  0  0
   -3.5890    5.7958    0.1897 O   0  0  0  0  0  0  0  0  0  0  0  0
   -0.3959    1.2829   -0.1366 C   0  0  0  0  0  0  0  0  0  0  0  0
    0.9375    1.1287    0.2069 C   0  0  0  0  0  0  0  0  0  0  0  0
    2.0668    2.7970    0.7827 I   0  0  0  0  0  0  0  0  0  0  0  0
    1.4733   -0.1228    0.4860 C   0  0  0  0  0  0  0  0  0  0  0  0
    2.8964   -0.3083    0.1714 C   0  0  0  0  0  0  0  0  0  0  0  0
    3.2092   -1.1048   -0.7653 O   0  0  0  0  0  0  0  0  0  0  0  0
    3.9106    0.1947    1.0161 N   0  0  0  0  0  0  0  0  0  0  0  0
    5.2411   -0.3678    0.8680 C   0  0  0  0  0  0  0  0  0  0  0  0
    6.1400    0.8417    0.1892 C   0  0  2  0  0  0  0  0  0  0  0  0
    5.1355    1.0384   -0.9362 O   0  0  0  0  0  0  0  0  0  0  0  0
    7.0769   -0.1492   -0.7315 C   0  0  0  0  0  0  0  0  0  0  0  0
    6.5963   -1.3844   -0.7572 O   0  0  0  0  0  0  0  0  0  0  0  0
    0.6451   -1.2245    0.3636 C   0  0  0  0  0  0  0  0  0  0  0  0
    1.5080   -3.1413    0.4898 I   0  0  0  0  0  0  0  0  0  0  0  0
   -0.7087   -1.1178    0.0925 C   0  0  0  0  0  0  0  0  0  0  0  0
   -1.6178   -2.2451    0.1203 C   0  0  0  0  0  0  0  0  0  0  0  0
   -2.8420   -2.0059   -0.0882 O   0  0  0  0  0  0  0  0  0  0  0  0
   -1.2307   -3.5977    0.1141 N   0  0  0  0  0  0  0  0  0  0  0  0
   -1.8915   -4.5677   -0.7558 C   0  0  0  0  0  0  0  0  0  0  0  0
   -3.0166   -5.2607    0.2322 C   0  0  2  0  0  0  0  0  0  0  0  0
   -2.9752   -6.5603   -0.5544 O   0  0  0  0  0  0  0  0  0  0  0  0
   -4.2608   -4.6845   -0.6857 C   0  0  0  0  0  0  0  0  0  0  0  0
   -5.3572   -4.8282    0.1698 O   0  0  0  0  0  0  0  0  0  0  0  0
   -1.1343    0.1319   -0.3414 C   0  0  0  0  0  0  0  0  0  0  0  0
   -2.8946    0.2955   -1.4914 I   0  0  0  0  0  0  0  0  0  0  0  0
  1  2  1  0
  2  3  2  0
  2  4  1  0
  4  5  1  0
  6  5  1  1
  6  7  1  0
  6  8  1  0
  8  9  1  0
  4 10  1  0
 10 11  2  0
 11 12  1  0
 11 13  1  0
 13 14  1  0
 14 15  2  0
 14 16  1  0
 16 17  1  0
 18 17  1  1
 18 19  1  0
 18 20  1  0
 20 21  1  0
 13 22  2  0
 22 23  1  0
 22 24  1  0
 24 25  1  0
 25 26  2  0
 25 27  1  0
 27 28  1  0
 29 28  1  6
 29 30  1  0
 29 31  1  0
 31 32  1  0
 24 33  2  0
 33 34  1  0
 33 10  1  0
M  END
>  <zinc_id>  (263) 
ZINC000003830943

>  <smiles>  (263) 
CC(=O)N(C[C@H](O)CO)c1c(I)c(C(=O)NC[C@H](O)CO)c(I)c(C(=O)NC[C@H](O)CO)c1I

$$$$

     RDKit          3D

 17 18  0  0  0  0  0  0  0  0999 V2000
   -4.8654    2.1289   -1.3448 O   0  0  0  0  0  0  0  0  0  0  0  0
   -4.2142    1.5739   -0.4126 C   0  0  0  0  0  0  0  0  0  0  0  0
   -2.7237    1.6703   -0.3313 C   0  0  0  0  0  0  0  0  0  0  0  0
   -2.3527    0.2709   -0.1878 N   0  0  0  0  0  0  0  0  0  0  0  0
   -1.1883   -0.3683   -0.6520 N   0  0  0  0  0  0  0  0  0  0  0  0
   -0.0553    0.2385   -0.6815 C   0  0  0  0  0  0  0  0  0  0  0  0
    1.1976   -0.4527   -0.3516 C   0  0  0  0  0  0  0  0  0  0  0  0
    1.4495   -1.3388    0.6834 C   0  0  0  0  0  0  0  0  0  0  0  0
    2.7584   -1.0697    1.0663 C   0  0  0  0  0  0  0  0  0  0  0  0
    3.3393   -0.5411   -0.0797 C   0  0  0  0  0  0  0  0  0  0  0  0
    4.7270   -0.2864   -0.3243 N   0  0  0  0  0  0  0  0  0  0  0  0
    5.0641    0.9241   -0.2890 O   0  0  0  0  0  0  0  0  0  0  0  0
    5.6942   -1.2279   -0.0167 O   0  0  0  0  0  0  0  0  0  0  0  0
    2.3671   -0.0378   -0.7842 O   0  0  0  0  0  0  0  0  0  0  0  0
   -3.4225   -0.4645    0.4089 C   0  0  0  0  0  0  0  0  0  0  0  0
   -3.2112   -1.4159    1.2018 O   0  0  0  0  0  0  0  0  0  0  0  0
   -4.5638    0.3966    0.3252 N   0  0  0  0  0  0  0  0  0  0  0  0
  1  2  2  0
  2  3  1  0
  3  4  1  0
  4  5  1  0
  5  6  2  0
  6  7  1  0
  7  8  2  0
  8  9  1  0
  9 10  2  0
 10 11  1  0
 11 12  2  0
 11 13  1  0
 10 14  1  0
  4 15  1  0
 15 16  2  0
 15 17  1  0
 17  2  1  0
 14  7  1  0
M  CHG  2  11   1  13  -1
M  END
>  <zinc_id>  (264) 
ZINC000003875368

>  <smiles>  (264) 
O=C1CN(/N=C/c2ccc([N+](=O)[O-])o2)C(=O)N1

$$$$

     RDKit          3D

 40 44  0  0  0  0  0  0  0  0999 V2000
    0.1686   -2.7201    3.4822 C   0  0  0  0  0  0  0  0  0  0  0  0
    0.4610   -1.5734    2.7133 O   0  0  0  0  0  0  0  0  0  0  0  0
    0.8985   -1.6142    1.4057 C   0  0  0  0  0  0  0  0  0  0  0  0
    2.0467   -0.9463    0.9988 C   0  0  0  0  0  0  0  0  0  0  0  0
    2.4021   -0.9379   -0.3445 C   0  0  0  0  0  0  0  0  0  0  0  0
    3.6200   -0.3659   -0.8102 N   0  0  0  0  0  0  0  0  0  0  0  0
    4.8020   -1.2139   -0.6790 C   0  0  0  0  0  0  0  0  0  0  0  0
    5.4039   -1.0318    0.6878 C   0  0  0  0  0  0  0  0  0  0  0  0
    5.5202    0.4144    1.0906 C   0  0  0  0  0  0  0  0  0  0  0  0
    6.6050    1.0946    0.4189 N   0  0  0  0  0  0  0  0  0  0  0  0
    7.6837    1.4392    1.3161 C   0  0  0  0  0  0  0  0  0  0  0  0
    8.8196    0.4517    1.2804 C   0  0  0  0  0  0  0  0  0  0  0  0
    9.3373    0.2324   -0.0477 N   0  0  0  0  0  0  0  0  0  0  0  0
    9.2595   -1.2029   -0.3072 C   0  0  0  0  0  0  0  0  0  0  0  0
    8.4816    0.8948   -1.0301 C   0  0  0  0  0  0  0  0  0  0  0  0
    7.0693    0.3917   -0.7551 C   0  0  0  0  0  0  0  0  0  0  0  0
    4.2373    1.1835    0.8908 C   0  0  0  0  0  0  0  0  0  0  0  0
    3.8344    1.0576   -0.5707 C   0  0  0  0  0  0  0  0  0  0  0  0
    1.8749   -1.9789   -1.0992 C   0  0  0  0  0  0  0  0  0  0  0  0
    0.5712   -2.3507   -0.7935 C   0  0  0  0  0  0  0  0  0  0  0  0
    0.0738   -2.2748    0.5023 C   0  0  0  0  0  0  0  0  0  0  0  0
   -1.3531   -2.1895    0.6075 N   0  0  0  0  0  0  0  0  0  0  0  0
   -2.0457   -1.1873   -0.1477 C   0  0  0  0  0  0  0  0  0  0  0  0
   -1.5790   -0.7146   -1.3164 N   0  0  0  0  0  0  0  0  0  0  0  0
   -1.7677    0.5653   -1.7199 C   0  0  0  0  0  0  0  0  0  0  0  0
   -2.6654    1.3388   -0.9970 C   0  0  0  0  0  0  0  0  0  0  0  0
   -2.5409    3.0898   -0.9256 Cl  0  0  0  0  0  0  0  0  0  0  0  0
   -3.4654    0.6783   -0.0829 C   0  0  0  0  0  0  0  0  0  0  0  0
   -4.6910    1.3141    0.2796 N   0  0  0  0  0  0  0  0  0  0  0  0
   -5.7390    1.4912   -0.6750 C   0  0  0  0  0  0  0  0  0  0  0  0
   -5.5454    2.0568   -1.9097 C   0  0  0  0  0  0  0  0  0  0  0  0
   -6.3281    1.6692   -2.9899 C   0  0  0  0  0  0  0  0  0  0  0  0
   -7.5216    1.0215   -2.7433 C   0  0  0  0  0  0  0  0  0  0  0  0
   -7.7750    0.4924   -1.5041 C   0  0  0  0  0  0  0  0  0  0  0  0
   -6.9010    0.7887   -0.4715 C   0  0  0  0  0  0  0  0  0  0  0  0
   -7.4463    0.4121    1.1930 P   0  0  0  0  0  0  0  0  0  0  0  0
   -7.2536   -1.3724    1.4762 C   0  0  0  0  0  0  0  0  0  0  0  0
   -6.5101    1.3761    2.4118 C   0  0  0  0  0  0  0  0  0  0  0  0
   -8.9121    0.7748    1.3688 O   0  0  0  0  0  0  0  0  0  0  0  0
   -3.1302   -0.5542    0.3617 N   0  0  0  0  0  0  0  0  0  0  0  0
  1  2  1  0
  2  3  1  0
  3  4  2  0
  4  5  1  0
  5  6  1  0
  6  7  1  0
  7  8  1  0
  8  9  1  0
  9 10  1  0
 10 11  1  0
 11 12  1  0
 12 13  1  0
 13 14  1  0
 13 15  1  0
 15 16  1  0
  9 17  1  0
 17 18  1  0
  5 19  2  0
 19 20  1  0
 20 21  2  0
 21 22  1  0
 22 23  1  0
 23 24  2  0
 24 25  1  0
 25 26  2  0
 26 27  1  0
 26 28  1  0
 28 29  1  0
 29 30  1  0
 30 31  2  0
 31 32  1  0
 32 33  2  0
 33 34  1  0
 34 35  2  0
 35 36  1  0
 36 37  1  0
 36 38  1  0
 36 39  2  0
 28 40  2  0
 21  3  1  0
 40 23  1  0
 18  6  1  0
 35 30  1  0
 16 10  1  0
M  END
>  <zinc_id>  (265) 
ZINC000148723177

>  <smiles>  (265) 
COc1cc(N2CCC(N3CCN(C)CC3)CC2)ccc1Nc1ncc(Cl)c(Nc2ccccc2P(C)(C)=O)n1

$$$$

     RDKit          3D

 30 32  0  0  0  0  0  0  0  0999 V2000
   -3.9674    1.7824   -0.6134 C   0  0  0  0  0  0  0  0  0  0  0  0
   -4.8145    0.8518   -0.3145 C   0  0  0  0  0  0  0  0  0  0  0  0
   -4.3989    0.0709    0.8764 C   0  0  0  0  0  0  0  0  0  0  0  0
   -3.2938   -0.6300    0.6126 C   0  0  0  0  0  0  0  0  0  0  0  0
   -2.1820    0.2381    0.1843 C   0  0  0  0  0  0  0  0  0  0  0  0
   -0.9659   -0.2999    0.1675 C   0  0  0  0  0  0  0  0  0  0  0  0
   -0.8196   -1.7048   -0.1846 C   0  0  0  0  0  0  0  0  0  0  0  0
    0.4900   -2.3321    0.0144 C   0  0  0  0  0  0  0  0  0  0  0  0
    1.5088   -1.6132    0.8290 C   0  0  0  0  0  0  0  0  0  0  0  0
    1.3882   -0.1687    0.5292 C   0  0  1  0  0  0  0  0  0  0  0  0
    1.1354    0.1510   -0.7720 C   0  0  0  0  0  0  0  0  0  0  0  0
    0.0107    0.1872    1.3476 C   0  0  1  0  0  0  0  0  0  0  0  0
    0.0937    1.7047    0.7647 C   0  0  0  0  0  0  0  0  0  0  0  0
    1.3917    2.0930    1.3191 C   0  0  0  0  0  0  0  0  0  0  0  0
    2.1922    0.7071    1.5902 C   0  0  2  0  0  0  0  0  0  0  0  0
    3.5595    1.2043    0.6933 C   0  0  2  0  0  0  0  0  0  0  0  0
    2.8308    1.8010   -0.6239 C   0  0  0  0  0  0  0  0  0  0  0  0
    3.8425   -0.2312    0.0361 C   0  0  0  0  0  0  0  0  0  0  0  0
    5.0394   -0.7233    0.3823 C   0  0  0  0  0  0  0  0  0  0  0  0
    6.0946   -0.9434   -0.8095 C   0  0  2  0  0  0  0  0  0  0  0  0
    6.7227   -2.2827   -0.1111 C   0  0  0  0  0  0  0  0  0  0  0  0
    7.2219    0.0147   -0.1083 C   0  0  0  0  0  0  0  0  0  0  0  0
    6.8008    1.4179   -0.4468 C   0  0  0  0  0  0  0  0  0  0  0  0
    8.5213   -0.3709   -0.7592 C   0  0  0  0  0  0  0  0  0  0  0  0
   -5.5827   -0.7243    1.3621 C   0  0  0  0  0  0  0  0  0  0  0  0
   -5.9473   -1.2369   -0.1671 C   0  0  1  0  0  0  0  0  0  0  0  0
   -6.9763   -2.2210    0.3646 O   0  0  0  0  0  0  0  0  0  0  0  0
   -7.0605   -0.0536   -0.3870 C   0  0  0  0  0  0  0  0  0  0  0  0
   -6.3059    1.3241    0.1146 C   0  0  2  0  0  0  0  0  0  0  0  0
   -6.5296    1.9878   -1.2384 O   0  0  0  0  0  0  0  0  0  0  0  0
  1  2  2  0
  2  3  1  0
  3  4  2  0
  4  5  1  0
  5  6  2  0
  6  7  1  0
  7  8  1  0
  8  9  1  0
  9 10  1  0
 10 11  1  6
 10 12  1  0
 12 13  1  6
 13 14  1  0
 15 14  1  6
 15 16  1  0
 16 17  1  6
 16 18  1  0
 18 19  2  0
 20 19  1  1
 20 21  1  0
 20 22  1  0
 22 23  1  0
 22 24  1  0
  3 25  1  0
 25 26  1  0
 26 27  1  1
 26 28  1  0
 28 29  1  0
 29 30  1  6
 29  2  1  0
 12  6  1  0
 15 10  1  0
M  END
>  <zinc_id>  (266) 
ZINC000004641374

>  <smiles>  (266) 
C=C1/C(=C\C=C2/CCC[C@@]3(C)[C@H]2CC[C@@H]3[C@H](C)/C=C/[C@H](C)C(C)C)C[C@@H](O)C[C@@H]1O

$$$$

     RDKit          3D

 23 25  0  0  0  0  0  0  0  0999 V2000
   -6.7464    1.3587   -0.9005 O   0  0  0  0  0  0  0  0  0  0  0  0
   -5.9219    1.2630    0.0515 C   0  0  0  0  0  0  0  0  0  0  0  0
   -5.5338   -0.0486    0.6592 C   0  0  0  0  0  0  0  0  0  0  0  0
   -4.0794    0.0449    0.5691 N   0  0  0  0  0  0  0  0  0  0  0  0
   -3.2824   -1.0094    0.1512 N   0  0  0  0  0  0  0  0  0  0  0  0
   -2.5214   -0.9990   -0.8751 C   0  0  0  0  0  0  0  0  0  0  0  0
   -1.1140   -1.3991   -0.8594 C   0  0  0  0  0  0  0  0  0  0  0  0
   -0.7222   -2.6987   -0.5625 C   0  0  0  0  0  0  0  0  0  0  0  0
    0.5303   -2.6538    0.0381 C   0  0  0  0  0  0  0  0  0  0  0  0
    0.9373   -1.3411   -0.1678 C   0  0  0  0  0  0  0  0  0  0  0  0
    2.2705   -0.8326    0.1315 C   0  0  0  0  0  0  0  0  0  0  0  0
    2.4701    0.3649    0.8041 C   0  0  0  0  0  0  0  0  0  0  0  0
    3.6249    1.0574    0.4626 C   0  0  0  0  0  0  0  0  0  0  0  0
    4.7215    0.3434    0.0412 C   0  0  0  0  0  0  0  0  0  0  0  0
    5.9845    1.0117    0.1375 N   0  0  0  0  0  0  0  0  0  0  0  0
    6.3230    1.4369    1.2683 O   0  0  0  0  0  0  0  0  0  0  0  0
    6.3228    1.8293   -0.9229 O   0  0  0  0  0  0  0  0  0  0  0  0
    4.5998   -0.9805   -0.2892 C   0  0  0  0  0  0  0  0  0  0  0  0
    3.3473   -1.5630   -0.3290 C   0  0  0  0  0  0  0  0  0  0  0  0
   -0.1246   -0.6442   -0.4814 O   0  0  0  0  0  0  0  0  0  0  0  0
   -3.7667    1.4193    0.6159 C   0  0  0  0  0  0  0  0  0  0  0  0
   -2.4964    1.9128    0.8648 O   0  0  0  0  0  0  0  0  0  0  0  0
   -4.8227    2.1277    0.3526 N   0  0  0  0  0  0  0  0  0  0  0  0
  1  2  2  0
  2  3  1  0
  3  4  1  0
  4  5  1  0
  5  6  2  3
  6  7  1  0
  7  8  2  0
  8  9  1  0
  9 10  2  0
 10 11  1  0
 11 12  2  0
 12 13  1  0
 13 14  2  0
 14 15  1  0
 15 16  2  0
 15 17  1  0
 14 18  1  0
 18 19  2  0
 10 20  1  0
  4 21  1  0
 21 22  1  0
 21 23  2  0
 23  2  1  0
 20  7  1  0
 19 11  1  0
M  CHG  2  15   1  17  -1
M  END
>  <zinc_id>  (267) 
ZINC000252679615

>  <smiles>  (267) 
O=C1CN(N=Cc2ccc(-c3ccc([N+](=O)[O-])cc3)o2)C(O)=N1

$$$$

     RDKit          3D

 23 26  0  0  0  0  0  0  0  0999 V2000
   -5.0527    1.2495   -0.9344 C   0  0  0  0  0  0  0  0  0  0  0  0
   -4.1789    0.6275   -0.7986 C   0  0  0  0  0  0  0  0  0  0  0  0
   -3.1530   -0.3998   -0.5912 C   0  0  2  0  0  0  0  0  0  0  0  0
   -2.9065   -1.1827   -1.6770 O   0  0  0  0  0  0  0  0  0  0  0  0
   -3.5385   -1.1667    0.6719 C   0  0  0  0  0  0  0  0  0  0  0  0
   -2.3856   -0.9235    1.6576 C   0  0  0  0  0  0  0  0  0  0  0  0
   -1.3296   -1.1489    0.4449 C   0  0  2  0  0  0  0  0  0  0  0  0
    0.0836   -0.6778    1.2543 C   0  0  2  0  0  0  0  0  0  0  0  0
    0.1788    0.8807    0.9402 C   0  0  0  0  0  0  0  0  0  0  0  0
    1.4843    1.4394    0.7816 C   0  0  0  0  0  0  0  0  0  0  0  0
    2.4209    0.6785   -0.1159 C   0  0  0  0  0  0  0  0  0  0  0  0
    3.6526    1.0982   -0.3626 C   0  0  0  0  0  0  0  0  0  0  0  0
    4.8214    0.2491   -0.0841 C   0  0  0  0  0  0  0  0  0  0  0  0
    5.9475    0.7451    0.2230 O   0  0  0  0  0  0  0  0  0  0  0  0
    4.6548   -1.1885   -0.4218 C   0  0  0  0  0  0  0  0  0  0  0  0
    3.2035   -1.4811   -0.6792 C   0  0  0  0  0  0  0  0  0  0  0  0
    2.3662   -0.7823    0.5280 C   0  0  2  0  0  0  0  0  0  0  0  0
    0.8809   -1.2983   -0.1101 C   0  0  2  0  0  0  0  0  0  0  0  0
    0.5634   -0.1374   -1.1623 C   0  0  0  0  0  0  0  0  0  0  0  0
   -0.8336    0.1946   -1.3559 C   0  0  0  0  0  0  0  0  0  0  0  0
   -1.7894    0.2293   -0.2363 C   0  0  1  0  0  0  0  0  0  0  0  0
   -2.1330    1.3379    0.4724 C   0  0  0  0  0  0  0  0  0  0  0  0
   -2.9571    1.6572    1.5555 C   0  0  0  0  0  0  0  0  0  0  0  0
  1  2  3  0
  3  2  1  6
  3  4  1  0
  3  5  1  0
  5  6  1  0
  7  6  1  1
  7  8  1  0
  8  9  1  6
  9 10  1  0
 10 11  1  0
 11 12  2  0
 12 13  1  0
 13 14  2  0
 13 15  1  0
 15 16  1  0
 17 16  1  6
 17 18  1  0
 18 19  1  6
 19 20  1  0
 20 21  1  0
 21 22  1  1
 22 23  1  0
 21  3  1  0
 21  7  1  0
 18  8  1  0
 17 11  1  0
M  END
>  <zinc_id>  (268) 
ZINC000253530025

>  <smiles>  (268) 
C#C[C@]1(O)CC[C@@H]2[C@@H]3CCC4=CC(=O)CC[C@@H]4[C@@H]3CC[C@]21CC

$$$$

     RDKit          3D

 19 19  0  0  0  0  0  0  0  0999 V2000
    5.5357   -0.9305   -0.2457 C   0  0  0  0  0  0  0  0  0  0  0  0
    4.1116   -1.2485    0.0706 C   0  0  0  0  0  0  0  0  0  0  0  0
    3.6221   -2.5499   -0.0781 O   0  0  0  0  0  0  0  0  0  0  0  0
    3.2762   -0.2107    0.0712 C   0  0  0  0  0  0  0  0  0  0  0  0
    3.6499    1.0287   -0.5713 C   0  0  0  0  0  0  0  0  0  0  0  0
    3.7840    2.0158   -1.1797 N   0  0  0  0  0  0  0  0  0  0  0  0
    1.8500   -0.5523    0.1613 C   0  0  0  0  0  0  0  0  0  0  0  0
    1.2775   -0.7357   -0.9562 O   0  0  0  0  0  0  0  0  0  0  0  0
    1.0487    0.1304    1.1330 N   0  0  0  0  0  0  0  0  0  0  0  0
   -0.3462    0.3606    0.9027 C   0  0  0  0  0  0  0  0  0  0  0  0
   -1.1961   -0.6328    1.3794 C   0  0  0  0  0  0  0  0  0  0  0  0
   -2.4868   -0.6249    0.9149 C   0  0  0  0  0  0  0  0  0  0  0  0
   -2.8806    0.0861   -0.2123 C   0  0  0  0  0  0  0  0  0  0  0  0
   -4.3289    0.4482   -0.3029 C   0  0  0  0  0  0  0  0  0  0  0  0
   -5.0258   -0.6991    0.0534 F   0  0  0  0  0  0  0  0  0  0  0  0
   -4.6604    0.9045   -1.5491 F   0  0  0  0  0  0  0  0  0  0  0  0
   -4.5936    1.3729    0.6949 F   0  0  0  0  0  0  0  0  0  0  0  0
   -1.9386    0.8490   -0.8622 C   0  0  0  0  0  0  0  0  0  0  0  0
   -0.6988    0.9883   -0.2857 C   0  0  0  0  0  0  0  0  0  0  0  0
  1  2  1  0
  2  3  1  0
  2  4  2  0
  4  5  1  0
  5  6  3  0
  4  7  1  0
  7  8  2  0
  7  9  1  0
  9 10  1  0
 10 11  2  0
 11 12  1  0
 12 13  2  0
 13 14  1  0
 14 15  1  0
 14 16  1  0
 14 17  1  0
 13 18  1  0
 18 19  2  0
 19 10  1  0
M  END
>  <zinc_id>  (269) 
ZINC000013512456

>  <smiles>  (269) 
C/C(O)=C(\C#N)C(=O)Nc1ccc(C(F)(F)F)cc1

$$$$

     RDKit          3D

 23 26  0  0  0  0  0  0  0  0999 V2000
   -3.7626    1.1840   -2.5804 C   0  0  0  0  0  0  0  0  0  0  0  0
   -3.2798    0.8040   -1.6664 C   0  0  0  0  0  0  0  0  0  0  0  0
   -2.7560    0.6646   -0.3228 C   0  0  2  0  0  0  0  0  0  0  0  0
   -3.6648    0.8965    0.6819 O   0  0  0  0  0  0  0  0  0  0  0  0
   -1.6111    1.6325   -0.0565 C   0  0  0  0  0  0  0  0  0  0  0  0
   -1.3391    1.2899    1.3078 C   0  0  0  0  0  0  0  0  0  0  0  0
   -1.6203   -0.3000    1.4896 C   0  0  2  0  0  0  0  0  0  0  0  0
   -0.0021   -0.8089    1.4424 C   0  0  2  0  0  0  0  0  0  0  0  0
    0.5849    0.3985    2.3297 C   0  0  0  0  0  0  0  0  0  0  0  0
    1.2960    1.4238    1.5692 C   0  0  0  0  0  0  0  0  0  0  0  0
    2.3162    0.9578    0.6201 C   0  0  0  0  0  0  0  0  0  0  0  0
    3.5801    1.2564    0.5808 C   0  0  0  0  0  0  0  0  0  0  0  0
    4.4917    0.2141    0.0835 C   0  0  0  0  0  0  0  0  0  0  0  0
    5.7290    0.4500    0.1551 O   0  0  0  0  0  0  0  0  0  0  0  0
    4.0134   -0.8026   -0.9113 C   0  0  0  0  0  0  0  0  0  0  0  0
    2.5359   -0.5148   -1.1940 C   0  0  0  0  0  0  0  0  0  0  0  0
    2.0118   -0.5830    0.3417 C   0  0  2  0  0  0  0  0  0  0  0  0
    0.4215   -0.1563   -0.0343 C   0  0  1  0  0  0  0  0  0  0  0  0
    0.1621   -1.5510   -0.7903 C   0  0  0  0  0  0  0  0  0  0  0  0
   -1.2782   -1.2990   -0.9149 C   0  0  0  0  0  0  0  0  0  0  0  0
   -2.0567   -0.6020   -0.0327 C   0  0  2  0  0  0  0  0  0  0  0  0
   -3.1976   -1.5915    0.2751 C   0  0  0  0  0  0  0  0  0  0  0  0
   -2.5743   -2.9629    0.3742 C   0  0  0  0  0  0  0  0  0  0  0  0
  1  2  3  0
  3  2  1  6
  3  4  1  0
  3  5  1  0
  5  6  1  0
  7  6  1  6
  7  8  1  0
  8  9  1  1
  9 10  1  0
 10 11  1  0
 11 12  2  0
 12 13  1  0
 13 14  2  0
 13 15  1  0
 15 16  1  0
 17 16  1  6
 17 18  1  0
 18 19  1  6
 19 20  1  0
 20 21  1  0
 21 22  1  1
 22 23  1  0
 21  3  1  0
 21  7  1  0
 18  8  1  0
 17 11  1  0
M  END
>  <zinc_id>  (270) 
ZINC000022065398

>  <smiles>  (270) 
C#C[C@]1(O)CC[C@@H]2[C@@H]3CCC4=CC(=O)CC[C@@H]4[C@H]3CC[C@@]21CC

$$$$

     RDKit          3D

 26 28  0  0  0  0  0  0  0  0999 V2000
    4.4599    4.2398    0.5104 C   0  0  0  0  0  0  0  0  0  0  0  0
    3.0678    3.9045    0.0751 C   0  0  0  0  0  0  0  0  0  0  0  0
    2.8268    3.4993   -1.2324 C   0  0  0  0  0  0  0  0  0  0  0  0
    1.9444    2.4632   -1.5140 C   0  0  0  0  0  0  0  0  0  0  0  0
    1.1922    1.8767   -0.5025 C   0  0  0  0  0  0  0  0  0  0  0  0
    0.9734    0.4230   -0.5311 C   0  0  0  0  0  0  0  0  0  0  0  0
    1.9798   -0.4039   -0.2402 C   0  0  0  0  0  0  0  0  0  0  0  0
    1.7502   -1.5977    0.6220 C   0  0  0  0  0  0  0  0  0  0  0  0
    2.4229   -2.7738    0.1512 N   0  0  0  0  0  0  0  0  0  0  0  0
    3.2365   -2.5648   -1.0139 C   0  0  0  0  0  0  0  0  0  0  0  0
    3.9037   -3.9260   -1.1770 C   0  0  0  0  0  0  0  0  0  0  0  0
    4.0595   -4.3799    0.2697 C   0  0  0  0  0  0  0  0  0  0  0  0
    3.4017   -3.2880    1.1065 C   0  0  0  0  0  0  0  0  0  0  0  0
   -0.3578   -0.1466   -0.6484 C   0  0  0  0  0  0  0  0  0  0  0  0
   -0.5260   -1.4609   -1.0173 C   0  0  0  0  0  0  0  0  0  0  0  0
   -1.6588   -2.1794   -0.6514 C   0  0  0  0  0  0  0  0  0  0  0  0
   -2.5661   -1.4783    0.1349 C   0  0  0  0  0  0  0  0  0  0  0  0
   -2.6428   -0.1001   -0.0289 C   0  0  0  0  0  0  0  0  0  0  0  0
   -3.9306    0.6047   -0.0548 C   0  0  0  0  0  0  0  0  0  0  0  0
   -4.9513    0.2840    0.7024 C   0  0  0  0  0  0  0  0  0  0  0  0
   -6.3420    0.2867    0.2289 C   0  0  0  0  0  0  0  0  0  0  0  0
   -7.2314    1.0130    0.7656 O   0  0  0  0  0  0  0  0  0  0  0  0
   -6.8038   -0.9397   -0.2617 O   0  0  0  0  0  0  0  0  0  0  0  0
   -1.4894    0.5340   -0.3545 N   0  0  0  0  0  0  0  0  0  0  0  0
    1.1477    2.5958    0.6868 C   0  0  0  0  0  0  0  0  0  0  0  0
    2.1335    3.5145    1.0255 C   0  0  0  0  0  0  0  0  0  0  0  0
  1  2  1  0
  2  3  2  0
  3  4  1  0
  4  5  2  0
  5  6  1  0
  6  7  2  0
  7  8  1  0
  8  9  1  0
  9 10  1  0
 10 11  1  0
 11 12  1  0
 12 13  1  0
  6 14  1  0
 14 15  2  0
 15 16  1  0
 16 17  2  0
 17 18  1  0
 18 19  1  0
 19 20  2  0
 20 21  1  0
 21 22  2  0
 21 23  1  0
 18 24  2  0
  5 25  1  0
 25 26  2  0
 26  2  1  0
 13  9  1  0
 24 14  1  0
M  END
>  <zinc_id>  (271) 
ZINC000031274852

>  <smiles>  (271) 
Cc1ccc(/C(=C/CN2CCCC2)c2cccc(/C=C/C(=O)O)n2)cc1

$$$$

     RDKit          3D

 32 36  0  0  0  0  0  0  0  0999 V2000
    1.1619   -0.9477   -2.0463 O   0  0  0  0  0  0  0  0  0  0  0  0
    1.4180    0.1742   -1.5126 C   0  0  0  0  0  0  0  0  0  0  0  0
    0.2323    0.9254   -1.0749 C   0  0  0  0  0  0  0  0  0  0  0  0
   -0.8184    0.3028   -0.4103 C   0  0  0  0  0  0  0  0  0  0  0  0
   -1.4300    0.9049    0.6698 C   0  0  0  0  0  0  0  0  0  0  0  0
   -2.1141    0.1390    1.7521 C   0  0  0  0  0  0  0  0  0  0  0  0
   -3.1334   -0.7513    1.1141 C   0  0  0  0  0  0  0  0  0  0  0  0
   -2.7709   -1.9594    0.6207 N   0  0  0  0  0  0  0  0  0  0  0  0
   -3.7085   -2.6702    0.0283 N   0  0  0  0  0  0  0  0  0  0  0  0
   -4.8057   -2.1300   -0.5170 C   0  0  0  0  0  0  0  0  0  0  0  0
   -5.7300   -2.8249   -1.0244 O   0  0  0  0  0  0  0  0  0  0  0  0
   -5.0205   -0.7712   -0.3436 C   0  0  0  0  0  0  0  0  0  0  0  0
   -6.0157   -0.0905   -1.0331 C   0  0  0  0  0  0  0  0  0  0  0  0
   -6.0161    1.2898   -0.8726 C   0  0  0  0  0  0  0  0  0  0  0  0
   -5.5872    1.7999    0.3416 C   0  0  0  0  0  0  0  0  0  0  0  0
   -4.6291    1.1297    1.0887 C   0  0  0  0  0  0  0  0  0  0  0  0
   -4.3004   -0.1456    0.6648 C   0  0  0  0  0  0  0  0  0  0  0  0
   -1.2354    2.2644    0.8462 C   0  0  0  0  0  0  0  0  0  0  0  0
   -0.6383    2.9836   -0.1829 C   0  0  0  0  0  0  0  0  0  0  0  0
    0.2216    2.3129   -1.0329 C   0  0  0  0  0  0  0  0  0  0  0  0
    1.0722    2.9455   -1.8774 F   0  0  0  0  0  0  0  0  0  0  0  0
    2.4812    0.1260   -0.5494 N   0  0  0  0  0  0  0  0  0  0  0  0
    2.2172   -0.7728    0.5713 C   0  0  0  0  0  0  0  0  0  0  0  0
    3.5246   -1.3892    0.9854 C   0  0  0  0  0  0  0  0  0  0  0  0
    4.6422   -0.5344    0.5960 N   0  0  0  0  0  0  0  0  0  0  0  0
    5.7582   -1.1400   -0.0667 C   0  0  0  0  0  0  0  0  0  0  0  0
    5.6010   -1.7135   -1.1869 O   0  0  0  0  0  0  0  0  0  0  0  0
    7.1634   -0.7705    0.2909 C   0  0  0  0  0  0  0  0  0  0  0  0
    7.3103    0.2665    1.3751 C   0  0  0  0  0  0  0  0  0  0  0  0
    7.4723   -1.1707    1.7555 C   0  0  0  0  0  0  0  0  0  0  0  0
    4.4284    0.8934    0.6083 C   0  0  0  0  0  0  0  0  0  0  0  0
    3.2492    1.3241   -0.2237 C   0  0  0  0  0  0  0  0  0  0  0  0
  1  2  2  0
  2  3  1  0
  3  4  2  0
  4  5  1  0
  5  6  1  0
  6  7  1  0
  7  8  2  0
  8  9  1  0
  9 10  1  0
 10 11  2  0
 10 12  1  0
 12 13  2  0
 13 14  1  0
 14 15  2  0
 15 16  1  0
 16 17  2  0
  5 18  2  0
 18 19  1  0
 19 20  2  0
 20 21  1  0
  2 22  1  0
 22 23  1  0
 23 24  1  0
 24 25  1  0
 25 26  1  0
 26 27  2  0
 26 28  1  0
 28 29  1  0
 29 30  1  0
 25 31  1  0
 31 32  1  0
 20  3  1  0
 32 22  1  0
 17  7  1  0
 30 28  1  0
 17 12  1  0
M  END
>  <zinc_id>  (272) 
ZINC000040430143

>  <smiles>  (272) 
O=C(c1cc(Cc2n[nH]c(=O)c3ccccc23)ccc1F)N1CCN(C(=O)C2CC2)CC1

$$$$

     RDKit          3D

 43 51  0  0  0  0  0  0  0  0999 V2000
    0.1202    1.2183   -1.0342 C   0  0  0  0  0  0  0  0  0  0  0  0
    0.4476    0.9539   -0.7224 O   0  0  0  0  0  0  0  0  0  0  0  0
    1.3635    1.4634    0.3615 C   0  0  2  0  0  0  0  0  0  0  0  0
    2.3897    0.0869    0.5000 C   0  0  2  0  0  0  0  0  0  0  0  0
    3.2272    0.3100   -0.7966 N   0  0  0  0  0  0  0  0  0  0  0  0
    2.6013    0.4428   -2.0496 C   0  0  0  0  0  0  0  0  0  0  0  0
    4.5179   -0.2728   -0.5688 C   0  0  0  0  0  0  0  0  0  0  0  0
    4.7744   -0.9969    0.4439 O   0  0  0  0  0  0  0  0  0  0  0  0
    5.6894   -0.0833   -1.4361 C   0  0  0  0  0  0  0  0  0  0  0  0
    6.7384    0.6254   -0.8509 C   0  0  0  0  0  0  0  0  0  0  0  0
    8.0626    0.4365   -1.2319 C   0  0  0  0  0  0  0  0  0  0  0  0
    8.3792   -0.6269   -2.0305 C   0  0  0  0  0  0  0  0  0  0  0  0
    7.4059   -1.4893   -2.4526 C   0  0  0  0  0  0  0  0  0  0  0  0
    6.1319   -1.2889   -1.9817 C   0  0  0  0  0  0  0  0  0  0  0  0
    1.3483   -0.9857   -0.1461 C   0  0  0  0  0  0  0  0  0  0  0  0
    0.6484   -1.5721    1.2443 C   0  0  1  0  0  0  0  0  0  0  0  0
    0.6189   -0.2710    1.9963 O   0  0  0  0  0  0  0  0  0  0  0  0
    0.4583    0.8630    1.5706 C   0  0  1  0  0  0  0  0  0  0  0  0
    1.0598    1.7669    2.6647 C   0  0  0  0  0  0  0  0  0  0  0  0
   -0.8878    1.3277    1.4378 N   0  0  0  0  0  0  0  0  0  0  0  0
   -1.3754    2.5707    1.4696 C   0  0  0  0  0  0  0  0  0  0  0  0
   -0.7283    3.7535    1.1686 C   0  0  0  0  0  0  0  0  0  0  0  0
   -1.2956    4.6417    0.2565 C   0  0  0  0  0  0  0  0  0  0  0  0
   -2.6750    4.5832    0.0880 C   0  0  0  0  0  0  0  0  0  0  0  0
   -3.3936    3.5997    0.7595 C   0  0  0  0  0  0  0  0  0  0  0  0
   -2.7641    2.5302    1.3866 C   0  0  0  0  0  0  0  0  0  0  0  0
   -3.0948    1.1795    1.4737 C   0  0  0  0  0  0  0  0  0  0  0  0
   -4.2525    0.4556    1.2004 C   0  0  0  0  0  0  0  0  0  0  0  0
   -4.2012   -0.7896    0.5790 C   0  0  0  0  0  0  0  0  0  0  0  0
   -3.0034   -1.5006    0.6210 C   0  0  0  0  0  0  0  0  0  0  0  0
   -2.5508   -2.5839   -0.1251 C   0  0  0  0  0  0  0  0  0  0  0  0
   -3.1732   -3.5470   -0.8754 C   0  0  0  0  0  0  0  0  0  0  0  0
   -2.4739   -4.2542   -1.8363 C   0  0  0  0  0  0  0  0  0  0  0  0
   -1.2211   -3.7780   -2.1979 C   0  0  0  0  0  0  0  0  0  0  0  0
   -0.4994   -3.0834   -1.2477 C   0  0  0  0  0  0  0  0  0  0  0  0
   -1.1637   -2.5339   -0.1583 C   0  0  0  0  0  0  0  0  0  0  0  0
   -0.8144   -1.4870    0.6288 N   0  0  0  0  0  0  0  0  0  0  0  0
   -1.8740   -0.9135    1.1834 C   0  0  0  0  0  0  0  0  0  0  0  0
   -1.9322    0.4501    1.4839 C   0  0  0  0  0  0  0  0  0  0  0  0
   -5.3708   -0.9092   -0.3064 C   0  0  0  0  0  0  0  0  0  0  0  0
   -5.4585   -1.5411   -1.4033 O   0  0  0  0  0  0  0  0  0  0  0  0
   -6.1286    0.2948   -0.1290 N   0  0  0  0  0  0  0  0  0  0  0  0
   -5.6505    0.9543    1.0624 C   0  0  0  0  0  0  0  0  0  0  0  0
  1  2  1  0
  3  2  1  6
  3  4  1  0
  4  5  1  6
  5  6  1  0
  5  7  1  0
  7  8  2  0
  7  9  1  0
  9 10  2  0
 10 11  1  0
 11 12  2  0
 12 13  1  0
 13 14  2  0
  4 15  1  0
 16 15  1  6
 16 17  1  0
 17 18  1  0
 18 19  1  1
 18 20  1  0
 20 21  1  0
 21 22  2  0
 22 23  1  0
 23 24  2  0
 24 25  1  0
 25 26  2  0
 26 27  1  0
 27 28  2  0
 28 29  1  0
 29 30  2  0
 30 31  1  0
 31 32  2  0
 32 33  1  0
 33 34  2  0
 34 35  1  0
 35 36  2  0
 36 37  1  0
 37 38  1  0
 38 39  2  0
 29 40  1  0
 40 41  2  0
 40 42  1  0
 42 43  1  0
 18  3  1  0
 39 20  1  0
 14  9  1  0
 37 16  1  0
 26 21  1  0
 39 27  1  0
 43 28  1  0
 38 30  1  0
 36 31  1  0
M  END
>  <zinc_id>  (273) 
ZINC000100013130

>  <smiles>  (273) 
CO[C@@H]1[C@H](N(C)C(=O)c2ccccc2)C[C@H]2O[C@]1(C)n1c3ccccc3c3c4c(c5c6ccccc6n2c5c31)C(=O)NC4

$$$$

     RDKit          3D

 49 53  0  0  0  0  0  0  0  0999 V2000
   -4.4606    1.8794    3.2516 C   0  0  0  0  0  0  0  0  0  0  0  0
   -5.2099    1.4258    2.5298 C   0  0  0  0  0  0  0  0  0  0  0  0
   -6.4488    2.2912    2.2913 C   0  0  0  0  0  0  0  0  0  0  0  0
   -5.7937    0.1140    3.0536 C   0  0  0  0  0  0  0  0  0  0  0  0
   -4.5922    1.2525    1.2239 N   0  0  0  0  0  0  0  0  0  0  0  0
   -4.4339   -0.0282    0.5821 C   0  0  0  0  0  0  0  0  0  0  0  0
   -4.8114   -0.9597    1.3225 O   0  0  0  0  0  0  0  0  0  0  0  0
   -5.1251    0.0805   -0.8715 C   0  0  2  0  0  0  0  0  0  0  0  0
   -5.3002   -1.5439   -1.0960 C   0  0  0  0  0  0  0  0  0  0  0  0
   -6.1633   -1.2724   -2.4427 C   0  0  2  0  0  0  0  0  0  0  0  0
   -6.5227   -2.8323   -2.6629 C   0  0  0  0  0  0  0  0  0  0  0  0
   -6.9642   -2.8643   -4.0980 C   0  0  0  0  0  0  0  0  0  0  0  0
   -6.8795   -1.5620   -4.8098 C   0  0  0  0  0  0  0  0  0  0  0  0
   -5.5772   -0.8509   -4.7230 C   0  0  0  0  0  0  0  0  0  0  0  0
   -4.7838   -1.3756   -3.4136 C   0  0  1  0  0  0  0  0  0  0  0  0
   -4.2906    0.1127   -3.0193 C   0  0  0  0  0  0  0  0  0  0  0  0
   -3.7859    0.0944   -1.6801 N   0  0  0  0  0  0  0  0  0  0  0  0
   -2.9631   -0.9405   -1.2963 C   0  0  0  0  0  0  0  0  0  0  0  0
   -1.3899   -0.5614   -1.5224 C   0  0  1  0  0  0  0  0  0  0  0  0
   -1.6520    0.7803   -2.1591 O   0  0  0  0  0  0  0  0  0  0  0  0
   -1.2785    0.1149    0.0472 C   0  0  2  0  0  0  0  0  0  0  0  0
   -0.1763    1.2641   -0.3108 C   0  0  0  0  0  0  0  0  0  0  0  0
   -0.2599    2.0932    0.9357 C   0  0  0  0  0  0  0  0  0  0  0  0
   -0.1623    3.4802    0.9052 C   0  0  0  0  0  0  0  0  0  0  0  0
   -0.2745    4.1993    2.0928 C   0  0  0  0  0  0  0  0  0  0  0  0
   -0.3731    3.5425    3.3174 C   0  0  0  0  0  0  0  0  0  0  0  0
   -0.4882    2.1559    3.3529 C   0  0  0  0  0  0  0  0  0  0  0  0
   -0.7644    1.5822    2.1280 C   0  0  0  0  0  0  0  0  0  0  0  0
   -0.2273   -0.9121    0.5549 N   0  0  0  0  0  0  0  0  0  0  0  0
    1.0094   -1.0129   -0.1055 C   0  0  0  0  0  0  0  0  0  0  0  0
    0.9034   -1.1899   -1.3124 O   0  0  0  0  0  0  0  0  0  0  0  0
    1.9270   -2.0283    0.7491 C   0  0  2  0  0  0  0  0  0  0  0  0
    2.2170   -0.8625    1.8696 C   0  0  0  0  0  0  0  0  0  0  0  0
    2.3284   -1.5079    3.1687 C   0  0  0  0  0  0  0  0  0  0  0  0
    2.0918   -2.8574    3.4842 N   0  0  0  0  0  0  0  0  0  0  0  0
    2.8474   -0.7521    4.0437 O   0  0  0  0  0  0  0  0  0  0  0  0
    3.2058   -1.7560   -0.1180 N   0  0  0  0  0  0  0  0  0  0  0  0
    3.9462   -0.5972   -0.0292 C   0  0  0  0  0  0  0  0  0  0  0  0
    3.3138    0.4221    0.3907 O   0  0  0  0  0  0  0  0  0  0  0  0
    5.4139   -0.5120   -0.1344 C   0  0  0  0  0  0  0  0  0  0  0  0
    6.0663   -0.3680    1.0854 C   0  0  0  0  0  0  0  0  0  0  0  0
    7.2997    0.2287    1.1926 C   0  0  0  0  0  0  0  0  0  0  0  0
    7.9873    0.4503    0.0237 C   0  0  0  0  0  0  0  0  0  0  0  0
    9.3061    0.8242    0.1108 C   0  0  0  0  0  0  0  0  0  0  0  0
   10.1107    0.7777   -0.9910 C   0  0  0  0  0  0  0  0  0  0  0  0
    9.5217    0.4348   -2.2107 C   0  0  0  0  0  0  0  0  0  0  0  0
    8.1773    0.2262   -2.2911 C   0  0  0  0  0  0  0  0  0  0  0  0
    7.4053    0.0414   -1.1650 C   0  0  0  0  0  0  0  0  0  0  0  0
    6.0742   -0.2128   -1.2442 N   0  0  0  0  0  0  0  0  0  0  0  0
  1  2  1  0
  2  3  1  0
  2  4  1  0
  2  5  1  0
  5  6  1  0
  6  7  2  0
  8  6  1  1
  8  9  1  0
 10  9  1  1
 10 11  1  0
 11 12  1  0
 12 13  1  0
 13 14  1  0
 15 14  1  6
 15 16  1  0
 16 17  1  0
 17 18  1  0
 19 18  1  1
 19 20  1  0
 19 21  1  0
 21 22  1  6
 22 23  1  0
 23 24  2  0
 24 25  1  0
 25 26  2  0
 26 27  1  0
 27 28  2  0
 21 29  1  0
 29 30  1  0
 30 31  2  0
 32 30  1  6
 32 33  1  0
 33 34  1  0
 34 35  1  0
 34 36  2  0
 32 37  1  0
 37 38  1  0
 38 39  2  0
 38 40  1  0
 40 41  2  0
 41 42  1  0
 42 43  2  0
 43 44  1  0
 44 45  2  0
 45 46  1  0
 46 47  2  0
 47 48  1  0
 48 49  2  0
 17  8  1  0
 28 23  1  0
 49 40  1  0
 15 10  1  0
 48 43  1  0
M  END
>  <zinc_id>  (274) 
ZINC000026664090

>  <smiles>  (274) 
CC(C)(C)NC(=O)[C@@H]1C[C@@H]2CCCC[C@H]2CN1C[C@@H](O)[C@H](Cc1ccccc1)NC(=O)[C@H](CC(N)=O)NC(=O)c1ccc2ccccc2n1

$$$$

     RDKit          3D

 21 21  0  0  0  0  0  0  0  0999 V2000
   -0.1920    5.4408   -0.4415 N   0  0  0  0  0  0  0  0  0  0  0  0
   -0.2922    4.2812   -0.3679 C   0  0  0  0  0  0  0  0  0  0  0  0
   -0.2232    2.8447   -0.3966 C   0  0  0  0  0  0  0  0  0  0  0  0
    0.8556    2.1443   -0.8651 C   0  0  0  0  0  0  0  0  0  0  0  0
    0.9560    0.7996   -0.6295 C   0  0  0  0  0  0  0  0  0  0  0  0
    2.0171   -0.0118   -1.1470 N   0  0  0  0  0  0  0  0  0  0  0  0
    2.7479   -0.7559   -0.1653 C   0  0  0  0  0  0  0  0  0  0  0  0
    3.0354   -0.1449    0.9078 O   0  0  0  0  0  0  0  0  0  0  0  0
    3.6728   -1.7943   -0.5928 C   0  0  0  0  0  0  0  0  0  0  0  0
    3.2062   -2.9058   -0.9082 O   0  0  0  0  0  0  0  0  0  0  0  0
    5.0121   -1.4462   -0.6819 O   0  0  0  0  0  0  0  0  0  0  0  0
   -0.0235    0.2035    0.1563 C   0  0  0  0  0  0  0  0  0  0  0  0
    0.1938   -1.4385    0.7524 Cl  0  0  0  0  0  0  0  0  0  0  0  0
   -1.2742    0.7840    0.3300 C   0  0  0  0  0  0  0  0  0  0  0  0
   -2.4663   -0.0007    0.4508 N   0  0  0  0  0  0  0  0  0  0  0  0
   -2.6547   -1.1217   -0.3891 C   0  0  0  0  0  0  0  0  0  0  0  0
   -2.2810   -1.0226   -1.5945 O   0  0  0  0  0  0  0  0  0  0  0  0
   -3.4540   -2.2918   -0.0059 C   0  0  0  0  0  0  0  0  0  0  0  0
   -4.6972   -2.1855   -0.2344 O   0  0  0  0  0  0  0  0  0  0  0  0
   -2.8079   -3.5262   -0.1297 O   0  0  0  0  0  0  0  0  0  0  0  0
   -1.3307    2.1480    0.0698 C   0  0  0  0  0  0  0  0  0  0  0  0
  1  2  3  0
  2  3  1  0
  3  4  2  0
  4  5  1  0
  5  6  1  0
  6  7  1  0
  7  8  2  0
  7  9  1  0
  9 10  2  0
  9 11  1  0
  5 12  2  0
 12 13  1  0
 12 14  1  0
 14 15  1  0
 15 16  1  0
 16 17  2  0
 16 18  1  0
 18 19  2  0
 18 20  1  0
 14 21  2  0
 21  3  1  0
M  END
>  <zinc_id>  (275) 
ZINC000002000707

>  <smiles>  (275) 
N#Cc1cc(NC(=O)C(=O)O)c(Cl)c(NC(=O)C(=O)O)c1

$$$$

     RDKit          3D

 49 53  0  0  0  0  0  0  0  0999 V2000
   -7.1048   -2.2481    1.1198 C   0  0  0  0  0  0  0  0  0  0  0  0
   -6.9069   -2.0606    1.3401 C   0  0  0  0  0  0  0  0  0  0  0  0
   -6.5273   -3.4659    1.1050 C   0  0  0  0  0  0  0  0  0  0  0  0
   -8.2504   -1.6970    1.8186 C   0  0  0  0  0  0  0  0  0  0  0  0
   -5.9404   -1.3959    2.2066 N   0  0  0  0  0  0  0  0  0  0  0  0
   -4.6881   -1.3888    1.8271 C   0  0  0  0  0  0  0  0  0  0  0  0
   -4.2438   -2.5910    1.7996 O   0  0  0  0  0  0  0  0  0  0  0  0
   -3.3653   -0.5434    2.1335 C   0  0  2  0  0  0  0  0  0  0  0  0
   -3.9710    0.7700    2.9109 C   0  0  0  0  0  0  0  0  0  0  0  0
   -5.4751    0.9443    2.4027 C   0  0  1  0  0  0  0  0  0  0  0  0
   -5.6981    2.2868    3.2816 C   0  0  0  0  0  0  0  0  0  0  0  0
   -7.0346    2.7330    2.7716 C   0  0  0  0  0  0  0  0  0  0  0  0
   -7.4826    2.1011    1.5127 C   0  0  0  0  0  0  0  0  0  0  0  0
   -6.4994    1.8768    0.4496 C   0  0  0  0  0  0  0  0  0  0  0  0
   -4.9995    1.8304    1.0449 C   0  0  2  0  0  0  0  0  0  0  0  0
   -4.6302    0.4520    0.2763 C   0  0  0  0  0  0  0  0  0  0  0  0
   -3.3665    0.1514    0.7152 N   0  0  0  0  0  0  0  0  0  0  0  0
   -2.3634    1.1164    0.6625 C   0  0  0  0  0  0  0  0  0  0  0  0
   -0.9008    0.3828    0.6444 C   0  0  1  0  0  0  0  0  0  0  0  0
   -1.3562   -0.7642   -0.2298 O   0  0  0  0  0  0  0  0  0  0  0  0
   -0.3397    1.3927   -0.6397 C   0  0  2  0  0  0  0  0  0  0  0  0
   -1.5528    1.0667   -1.6756 C   0  0  0  0  0  0  0  0  0  0  0  0
   -0.9814    0.8373   -3.0023 C   0  0  0  0  0  0  0  0  0  0  0  0
   -0.7154   -0.4656   -3.4033 C   0  0  0  0  0  0  0  0  0  0  0  0
   -0.7215   -0.8490   -4.7206 C   0  0  0  0  0  0  0  0  0  0  0  0
   -1.3073   -0.0384   -5.6581 C   0  0  0  0  0  0  0  0  0  0  0  0
   -1.6419    1.2468   -5.3058 C   0  0  0  0  0  0  0  0  0  0  0  0
   -1.4083    1.6887   -4.0119 C   0  0  0  0  0  0  0  0  0  0  0  0
    0.6086    0.2861   -1.1991 N   0  0  0  0  0  0  0  0  0  0  0  0
    1.9382    0.8116   -1.3030 C   0  0  0  0  0  0  0  0  0  0  0  0
    2.1760    2.0232   -1.4513 O   0  0  0  0  0  0  0  0  0  0  0  0
    2.9281   -0.0329   -2.2623 C   0  0  2  0  0  0  0  0  0  0  0  0
    2.6987   -1.4134   -1.4118 C   0  0  0  0  0  0  0  0  0  0  0  0
    3.1281   -1.2731   -0.0533 C   0  0  0  0  0  0  0  0  0  0  0  0
    3.1139   -0.1574    0.8037 N   0  0  0  0  0  0  0  0  0  0  0  0
    3.3364   -2.3784    0.5381 O   0  0  0  0  0  0  0  0  0  0  0  0
    4.2182    0.3832   -1.4547 N   0  0  0  0  0  0  0  0  0  0  0  0
    5.4279   -0.1440   -2.0013 C   0  0  0  0  0  0  0  0  0  0  0  0
    5.4704   -0.4356   -3.2327 O   0  0  0  0  0  0  0  0  0  0  0  0
    6.5822   -0.4200   -1.1363 C   0  0  0  0  0  0  0  0  0  0  0  0
    6.9819   -1.7076   -0.8182 C   0  0  0  0  0  0  0  0  0  0  0  0
    7.2157   -2.0182    0.5170 C   0  0  0  0  0  0  0  0  0  0  0  0
    7.5092   -0.9889    1.3996 C   0  0  0  0  0  0  0  0  0  0  0  0
    7.4084   -1.1650    2.7737 C   0  0  0  0  0  0  0  0  0  0  0  0
    7.9721   -0.2072    3.5778 C   0  0  0  0  0  0  0  0  0  0  0  0
    8.2208    1.0333    3.0388 C   0  0  0  0  0  0  0  0  0  0  0  0
    7.8723    1.3090    1.7430 C   0  0  0  0  0  0  0  0  0  0  0  0
    7.6413    0.2808    0.8646 C   0  0  0  0  0  0  0  0  0  0  0  0
    7.0239    0.5567   -0.3083 N   0  0  0  0  0  0  0  0  0  0  0  0
  1  2  1  0
  2  3  1  0
  2  4  1  0
  2  5  1  0
  5  6  1  0
  6  7  2  0
  8  6  1  6
  8  9  1  0
 10  9  1  1
 10 11  1  0
 11 12  1  0
 12 13  1  0
 13 14  1  0
 15 14  1  6
 15 16  1  0
 16 17  1  0
 17 18  1  0
 19 18  1  6
 19 20  1  0
 19 21  1  0
 21 22  1  6
 22 23  1  0
 23 24  2  0
 24 25  1  0
 25 26  2  0
 26 27  1  0
 27 28  2  0
 21 29  1  0
 29 30  1  0
 30 31  2  0
 32 30  1  1
 32 33  1  0
 33 34  1  0
 34 35  1  0
 34 36  2  0
 32 37  1  0
 37 38  1  0
 38 39  2  0
 38 40  1  0
 40 41  2  0
 41 42  1  0
 42 43  2  0
 43 44  1  0
 44 45  2  0
 45 46  1  0
 46 47  2  0
 47 48  1  0
 48 49  2  0
 17  8  1  0
 28 23  1  0
 49 40  1  0
 15 10  1  0
 48 43  1  0
M  END
>  <zinc_id>  (276) 
ZINC000026985532

>  <smiles>  (276) 
CC(C)(C)NC(=O)[C@@H]1C[C@H]2CCCC[C@@H]2CN1C[C@@H](O)[C@H](Cc1ccccc1)NC(=O)[C@H](CC(N)=O)NC(=O)c1ccc2ccccc2n1

$$$$

     RDKit          3D

 51 55  0  0  0  0  0  0  0  0999 V2000
    9.6825   -2.7593    0.3986 C   0  0  0  0  0  0  0  0  0  0  0  0
    8.9342   -1.4853    0.7054 C   0  0  0  0  0  0  0  0  0  0  0  0
    7.5325   -1.7052    0.1945 C   0  0  0  0  0  0  0  0  0  0  0  0
    6.7079   -2.3363    1.2776 C   0  0  0  0  0  0  0  0  0  0  0  0
    5.5251   -1.5082    1.6322 C   0  0  0  0  0  0  0  0  0  0  0  0
    5.6092   -0.5423    2.4431 O   0  0  0  0  0  0  0  0  0  0  0  0
    4.2734   -2.1221    1.5864 O   0  0  0  0  0  0  0  0  0  0  0  0
    3.1396   -1.2896    1.3850 C   0  0  0  0  0  0  0  0  0  0  0  0
    3.2956   -0.7219    0.0273 C   0  0  0  0  0  0  0  0  0  0  0  0
    4.3465   -0.2260   -0.3402 O   0  0  0  0  0  0  0  0  0  0  0  0
    2.1353   -0.6504   -0.9270 C   0  0  2  0  0  0  0  0  0  0  0  0
    2.5295   -1.3209   -2.1081 O   0  0  0  0  0  0  0  0  0  0  0  0
    2.2431    0.7882   -1.3767 C   0  0  0  0  0  0  0  0  0  0  0  0
    1.2153    1.3789   -0.5141 C   0  0  0  0  0  0  0  0  0  0  0  0
    1.4820    2.3915    0.3762 C   0  0  0  0  0  0  0  0  0  0  0  0
    2.7917    2.7445    0.6982 O   0  0  0  0  0  0  0  0  0  0  0  0
    0.4508    3.2966    0.6022 C   0  0  0  0  0  0  0  0  0  0  0  0
   -0.8466    2.9460    0.1997 C   0  0  0  0  0  0  0  0  0  0  0  0
   -1.0801    1.7044   -0.3841 C   0  0  0  0  0  0  0  0  0  0  0  0
   -2.3059    1.3336   -0.8438 O   0  0  0  0  0  0  0  0  0  0  0  0
   -0.0429    0.8215   -0.7202 C   0  0  0  0  0  0  0  0  0  0  0  0
   -0.2321   -0.5086    0.2056 C   0  0  1  0  0  0  0  0  0  0  0  0
   -1.2038   -1.2584   -0.7126 O   0  0  0  0  0  0  0  0  0  0  0  0
   -1.3700   -2.1249    0.5632 C   0  0  1  0  0  0  0  0  0  0  0  0
   -2.9703   -1.7862    0.6053 C   0  0  0  0  0  0  0  0  0  0  0  0
   -3.6722   -3.0862    1.2823 C   0  0  1  0  0  0  0  0  0  0  0  0
   -3.6548   -3.9978    0.0066 N   0  0  0  0  0  0  0  0  0  0  0  0
   -4.9668   -4.4847   -0.4146 C   0  0  0  0  0  0  0  0  0  0  0  0
   -5.9574   -3.7313   -0.3092 O   0  0  0  0  0  0  0  0  0  0  0  0
   -4.9662   -5.8132   -1.0303 C   0  0  0  0  0  0  0  0  0  0  0  0
   -3.6895   -6.1140   -1.4308 F   0  0  0  0  0  0  0  0  0  0  0  0
   -5.4558   -5.8769   -2.3024 F   0  0  0  0  0  0  0  0  0  0  0  0
   -5.5940   -6.7071   -0.2559 F   0  0  0  0  0  0  0  0  0  0  0  0
   -2.3721   -3.7819    2.1496 C   0  0  1  0  0  0  0  0  0  0  0  0
   -3.0319   -5.1399    2.0095 O   0  0  0  0  0  0  0  0  0  0  0  0
   -1.1030   -4.0262    1.0300 C   0  0  1  0  0  0  0  0  0  0  0  0
   -1.4186   -5.5757    0.5855 C   0  0  0  0  0  0  0  0  0  0  0  0
   -1.6866   -3.4104   -0.2137 O   0  0  0  0  0  0  0  0  0  0  0  0
    1.0388   -1.3164   -0.4457 C   0  0  0  0  0  0  0  0  0  0  0  0
   -1.8617    3.9946    0.1662 C   0  0  0  0  0  0  0  0  0  0  0  0
   -3.0352    3.6366   -0.0641 O   0  0  0  0  0  0  0  0  0  0  0  0
   -1.4124    5.3733   -0.0771 C   0  0  0  0  0  0  0  0  0  0  0  0
   -2.1779    6.2391   -0.8481 C   0  0  0  0  0  0  0  0  0  0  0  0
   -3.5456    6.0429   -0.7283 O   0  0  0  0  0  0  0  0  0  0  0  0
   -4.4635    6.1445   -1.7837 C   0  0  0  0  0  0  0  0  0  0  0  0
   -1.6095    7.0699   -1.7899 C   0  0  0  0  0  0  0  0  0  0  0  0
   -0.2235    7.1680   -1.8037 C   0  0  0  0  0  0  0  0  0  0  0  0
    0.4614    6.7919   -0.6495 C   0  0  0  0  0  0  0  0  0  0  0  0
   -0.0873    5.7563    0.0989 C   0  0  0  0  0  0  0  0  0  0  0  0
    0.7466    4.7337    0.7504 C   0  0  0  0  0  0  0  0  0  0  0  0
    1.8958    5.0513    1.0944 O   0  0  0  0  0  0  0  0  0  0  0  0
  1  2  1  0
  2  3  1  0
  3  4  1  0
  4  5  1  0
  5  6  2  0
  5  7  1  0
  7  8  1  0
  8  9  1  0
  9 10  2  0
 11  9  1  1
 11 12  1  0
 11 13  1  0
 13 14  1  0
 14 15  2  0
 15 16  1  0
 15 17  1  0
 17 18  2  0
 18 19  1  0
 19 20  1  0
 19 21  2  0
 21 22  1  0
 22 23  1  6
 24 23  1  6
 24 25  1  0
 25 26  1  0
 26 27  1  6
 27 28  1  0
 28 29  2  0
 28 30  1  0
 30 31  1  0
 30 32  1  0
 30 33  1  0
 26 34  1  0
 34 35  1  6
 34 36  1  0
 36 37  1  6
 36 38  1  0
 22 39  1  0
 18 40  1  0
 40 41  2  0
 40 42  1  0
 42 43  2  0
 43 44  1  0
 44 45  1  0
 43 46  1  0
 46 47  2  0
 47 48  1  0
 48 49  2  0
 49 50  1  0
 50 51  2  0
 39 11  1  0
 49 42  1  0
 21 14  1  0
 38 24  1  0
 50 17  1  0
M  END
>  <zinc_id>  (277) 
ZINC000028232746

>  <smiles>  (277) 
CCCCC(=O)OCC(=O)[C@]1(O)Cc2c(O)c3c(c(O)c2[C@@H](O[C@H]2C[C@@H](NC(=O)C(F)(F)F)[C@@H](O)[C@@H](C)O2)C1)C(=O)c1c(OC)cccc1C3=O

$$$$

     RDKit          3D

 22 23  0  0  0  0  0  0  0  0999 V2000
   -3.3984    1.2701    1.9147 C   0  0  0  0  0  0  0  0  0  0  0  0
   -3.6462    0.6512    0.5696 C   0  0  0  0  0  0  0  0  0  0  0  0
   -4.8938    1.2068   -0.0553 C   0  0  0  0  0  0  0  0  0  0  0  0
   -3.6724   -0.7840    0.7093 N   0  0  0  0  0  0  0  0  0  0  0  0
   -2.5632   -1.3815    0.0415 C   0  0  0  0  0  0  0  0  0  0  0  0
   -2.0467   -2.4986    0.3442 O   0  0  0  0  0  0  0  0  0  0  0  0
   -1.8194   -0.3457   -0.5910 N   0  0  0  0  0  0  0  0  0  0  0  0
   -0.4564   -0.3672   -1.0316 C   0  0  0  0  0  0  0  0  0  0  0  0
    0.1704   -1.5500   -1.4083 C   0  0  0  0  0  0  0  0  0  0  0  0
    1.4974   -1.7909   -1.0783 C   0  0  0  0  0  0  0  0  0  0  0  0
    2.2371   -0.8511   -0.3705 C   0  0  0  0  0  0  0  0  0  0  0  0
    3.1507   -1.2557    0.6576 N   0  0  0  0  0  0  0  0  0  0  0  0
    2.7495   -1.2756    1.8497 O   0  0  0  0  0  0  0  0  0  0  0  0
    3.9497   -2.3373    0.3206 O   0  0  0  0  0  0  0  0  0  0  0  0
    1.6863    0.4197   -0.2605 C   0  0  0  0  0  0  0  0  0  0  0  0
    2.6245    1.5259    0.0411 C   0  0  0  0  0  0  0  0  0  0  0  0
    2.0096    2.7247   -0.3052 F   0  0  0  0  0  0  0  0  0  0  0  0
    3.7543    1.4410   -0.7674 F   0  0  0  0  0  0  0  0  0  0  0  0
    2.9717    1.5980    1.3632 F   0  0  0  0  0  0  0  0  0  0  0  0
    0.4196    0.6807   -0.7729 C   0  0  0  0  0  0  0  0  0  0  0  0
   -2.5103    0.8863   -0.3628 C   0  0  0  0  0  0  0  0  0  0  0  0
   -2.2140    2.0334   -0.8077 O   0  0  0  0  0  0  0  0  0  0  0  0
  1  2  1  0
  2  3  1  0
  2  4  1  0
  4  5  1  0
  5  6  2  0
  5  7  1  0
  7  8  1  0
  8  9  2  0
  9 10  1  0
 10 11  2  0
 11 12  1  0
 12 13  2  0
 12 14  1  0
 11 15  1  0
 15 16  1  0
 16 17  1  0
 16 18  1  0
 16 19  1  0
 15 20  2  0
  7 21  1  0
 21 22  2  0
 21  2  1  0
 20  8  1  0
M  CHG  2  12   1  14  -1
M  END
>  <zinc_id>  (278) 
ZINC000003874498

>  <smiles>  (278) 
CC1(C)NC(=O)N(c2ccc([N+](=O)[O-])c(C(F)(F)F)c2)C1=O

$$$$

     RDKit          3D

 30 32  0  0  0  0  0  0  0  0999 V2000
   -0.0074   -3.2272    0.8317 C   0  0  0  0  0  0  0  0  0  0  0  0
   -0.0729   -3.0389    0.4675 C   0  0  0  0  0  0  0  0  0  0  0  0
    0.1617   -3.8992   -0.7424 C   0  0  0  0  0  0  0  0  0  0  0  0
   -1.1225   -2.0470    0.2479 N   0  0  0  0  0  0  0  0  0  0  0  0
   -0.9503   -0.7860   -0.2362 C   0  0  0  0  0  0  0  0  0  0  0  0
    0.3036   -0.1165    0.1368 C   0  0  0  0  0  0  0  0  0  0  0  0
    1.1768    0.4300   -0.6333 C   0  0  0  0  0  0  0  0  0  0  0  0
    2.6454   -0.3052   -0.7028 C   0  0  2  0  0  0  0  0  0  0  0  0
    2.7397   -0.4237    0.8318 O   0  0  0  0  0  0  0  0  0  0  0  0
    3.4585    1.1616   -0.6777 C   0  0  0  0  0  0  0  0  0  0  0  0
    4.8355    0.6203    0.0991 C   0  0  2  0  0  0  0  0  0  0  0  0
    4.8950    1.8669    0.9955 O   0  0  0  0  0  0  0  0  0  0  0  0
    5.8416    1.3281   -1.0291 C   0  0  0  0  0  0  0  0  0  0  0  0
    7.1539    0.9802   -0.4057 C   0  0  0  0  0  0  0  0  0  0  0  0
    7.4683   -0.2361   -0.2966 O   0  0  0  0  0  0  0  0  0  0  0  0
    7.7962    1.9055    0.4060 O   0  0  0  0  0  0  0  0  0  0  0  0
   -2.1778   -0.1860   -0.0259 C   0  0  0  0  0  0  0  0  0  0  0  0
   -2.5412    1.2214   -0.0995 C   0  0  0  0  0  0  0  0  0  0  0  0
   -3.8774    1.6024   -0.1313 C   0  0  0  0  0  0  0  0  0  0  0  0
   -4.2933    2.8414    0.3446 C   0  0  0  0  0  0  0  0  0  0  0  0
   -3.3599    3.8636    0.3832 C   0  0  0  0  0  0  0  0  0  0  0  0
   -3.8527    5.1210    0.4329 F   0  0  0  0  0  0  0  0  0  0  0  0
   -2.0520    3.5744    0.0140 C   0  0  0  0  0  0  0  0  0  0  0  0
   -1.6365    2.2482   -0.0226 C   0  0  0  0  0  0  0  0  0  0  0  0
   -3.0986   -1.2132    0.1395 C   0  0  0  0  0  0  0  0  0  0  0  0
   -4.4705   -1.2322   -0.0877 C   0  0  0  0  0  0  0  0  0  0  0  0
   -5.1178   -2.4397    0.1086 C   0  0  0  0  0  0  0  0  0  0  0  0
   -4.4056   -3.6075   -0.1367 C   0  0  0  0  0  0  0  0  0  0  0  0
   -3.0300   -3.6041   -0.1310 C   0  0  0  0  0  0  0  0  0  0  0  0
   -2.4100   -2.4026    0.1951 C   0  0  0  0  0  0  0  0  0  0  0  0
  1  2  1  0
  2  3  1  0
  2  4  1  0
  4  5  1  0
  5  6  1  0
  6  7  2  0
  8  7  1  1
  8  9  1  0
  8 10  1  0
 11 10  1  6
 11 12  1  0
 11 13  1  0
 13 14  1  0
 14 15  2  0
 14 16  1  0
  5 17  2  0
 17 18  1  0
 18 19  2  0
 19 20  1  0
 20 21  2  0
 21 22  1  0
 21 23  1  0
 23 24  2  0
 17 25  1  0
 25 26  2  0
 26 27  1  0
 27 28  2  0
 28 29  1  0
 29 30  2  0
 30  4  1  0
 24 18  1  0
 30 25  1  0
M  END
>  <zinc_id>  (279) 
ZINC000001530639

>  <smiles>  (279) 
CC(C)n1c(/C=C/[C@H](O)C[C@H](O)CC(=O)O)c(-c2ccc(F)cc2)c2ccccc21

$$$$

     RDKit          3D

 33 35  0  0  0  0  0  0  0  0999 V2000
    7.5611    1.7096    0.1487 C   0  0  0  0  0  0  0  0  0  0  0  0
    7.4092    0.4931   -0.2939 N   0  0  0  0  0  0  0  0  0  0  0  0
    6.3330    0.3660   -1.4152 C   0  0  2  0  0  0  0  0  0  0  0  0
    6.6742    1.8520   -1.9933 C   0  0  0  0  0  0  0  0  0  0  0  0
    4.9786    0.9511   -0.5391 C   0  0  2  0  0  0  0  0  0  0  0  0
    5.4618    0.2306    0.8401 C   0  0  0  0  0  0  0  0  0  0  0  0
    4.4057    0.1556    1.8003 C   0  0  0  0  0  0  0  0  0  0  0  0
    3.3551   -0.9394    1.2262 C   0  0  2  0  0  0  0  0  0  0  0  0
    4.3835   -1.8507    0.4984 N   0  0  0  0  0  0  0  0  0  0  0  0
    2.9302    0.1280   -0.0741 C   0  0  2  0  0  0  0  0  0  0  0  0
    1.9547   -0.8926   -0.6605 O   0  0  0  0  0  0  0  0  0  0  0  0
    0.7303   -0.2926   -0.0159 C   0  0  2  0  0  0  0  0  0  0  0  0
    0.9736   -1.2696    1.3835 C   0  0  2  0  0  0  0  0  0  0  0  0
    0.7580   -2.6696    0.6955 N   0  0  0  0  0  0  0  0  0  0  0  0
   -0.4254   -0.9801    2.0519 C   0  0  0  0  0  0  0  0  0  0  0  0
   -1.8153   -1.3777    1.4172 C   0  0  2  0  0  0  0  0  0  0  0  0
   -1.5204   -2.7803    0.7719 N   0  0  0  0  0  0  0  0  0  0  0  0
   -1.6845   -0.4231   -0.0154 C   0  0  2  0  0  0  0  0  0  0  0  0
   -2.7180   -1.2771   -0.6515 O   0  0  0  0  0  0  0  0  0  0  0  0
   -3.9981   -0.4772   -0.6371 C   0  0  2  0  0  0  0  0  0  0  0  0
   -3.2978    0.8016   -1.0923 O   0  0  0  0  0  0  0  0  0  0  0  0
   -4.4968    1.3849   -1.4653 C   0  0  0  0  0  0  0  0  0  0  0  0
   -5.5594    1.1215   -0.5706 C   0  0  2  0  0  0  0  0  0  0  0  0
   -6.5115    0.0087   -0.5868 C   0  0  0  0  0  0  0  0  0  0  0  0
   -6.4583    2.1762   -0.7733 O   0  0  0  0  0  0  0  0  0  0  0  0
   -5.1310    1.1742    0.9894 C   0  0  2  0  0  0  0  0  0  0  0  0
   -4.0739    2.3115    0.7876 N   0  0  0  0  0  0  0  0  0  0  0  0
   -4.7268    3.4876    0.3733 C   0  0  0  0  0  0  0  0  0  0  0  0
   -3.8822    0.0223    1.0022 C   0  0  1  0  0  0  0  0  0  0  0  0
   -4.8331   -1.0441    1.4545 O   0  0  0  0  0  0  0  0  0  0  0  0
   -0.4214   -1.3341   -0.7075 C   0  0  1  0  0  0  0  0  0  0  0  0
   -0.4695   -0.5489   -1.9743 O   0  0  0  0  0  0  0  0  0  0  0  0
    4.1147   -0.2174   -0.9710 O   0  0  0  0  0  0  0  0  0  0  0  0
  1  2  1  0
  3  2  1  1
  3  4  1  0
  3  5  1  0
  5  6  1  1
  6  7  1  0
  7  8  1  0
  8  9  1  6
  8 10  1  0
 10 11  1  6
 12 11  1  6
 12 13  1  0
 13 14  1  6
 13 15  1  0
 15 16  1  0
 16 17  1  6
 16 18  1  0
 18 19  1  6
 20 19  1  1
 20 21  1  0
 21 22  1  0
 22 23  1  0
 23 24  1  6
 23 25  1  0
 23 26  1  0
 26 27  1  6
 27 28  1  0
 26 29  1  0
 29 30  1  1
 18 31  1  0
 31 32  1  6
 10 33  1  0
 33  5  1  0
 31 12  1  0
 29 20  1  0
M  END
>  <zinc_id>  (280) 
ZINC000242437514

>  <smiles>  (280) 
CN[C@H](C)[C@@H]1CC[C@H](N)[C@H](O[C@H]2[C@H](O)[C@@H](O[C@@H]3OC[C@](C)(O)[C@H](NC)[C@H]3O)[C@@H](N)C[C@H]2N)O1

$$$$

     RDKit          3D

 25 27  0  0  0  0  0  0  0  0999 V2000
   -4.5454    2.8444   -0.1869 C   0  0  0  0  0  0  0  0  0  0  0  0
   -3.4647    2.0437   -0.2296 C   0  0  0  0  0  0  0  0  0  0  0  0
   -3.5100    0.8458    0.3429 C   0  0  0  0  0  0  0  0  0  0  0  0
   -4.8085    0.2839    0.7406 C   0  0  0  0  0  0  0  0  0  0  0  0
   -5.7007    0.0293   -0.1232 O   0  0  0  0  0  0  0  0  0  0  0  0
   -5.2336    0.4789    2.0572 O   0  0  0  0  0  0  0  0  0  0  0  0
   -2.3615    0.1285    0.7853 N   0  0  0  0  0  0  0  0  0  0  0  0
   -1.5958   -1.0344    0.3809 C   0  0  0  0  0  0  0  0  0  0  0  0
   -1.9589   -2.1912    0.7949 O   0  0  0  0  0  0  0  0  0  0  0  0
   -0.3477   -0.4236    1.2280 C   0  0  1  0  0  0  0  0  0  0  0  0
    0.6547   -0.2532   -0.0048 N   0  0  0  0  0  0  0  0  0  0  0  0
    0.8965   -1.5481   -0.4894 C   0  0  0  0  0  0  0  0  0  0  0  0
   -0.0711   -1.9017   -1.2333 O   0  0  0  0  0  0  0  0  0  0  0  0
    2.2516   -1.7585   -1.3808 C   0  0  2  0  0  0  0  0  0  0  0  0
    2.5201   -3.1736   -0.6752 N   0  0  0  0  0  0  0  0  0  0  0  0
    3.1936   -0.9600   -0.2980 C   0  0  0  0  0  0  0  0  0  0  0  0
    4.4775   -1.4672   -0.2231 C   0  0  0  0  0  0  0  0  0  0  0  0
    5.4277   -0.6494    0.3620 C   0  0  0  0  0  0  0  0  0  0  0  0
    5.2424    0.7247    0.3600 C   0  0  0  0  0  0  0  0  0  0  0  0
    6.3408    1.5796    0.4517 O   0  0  0  0  0  0  0  0  0  0  0  0
    3.9841    1.2317    0.0568 C   0  0  0  0  0  0  0  0  0  0  0  0
    3.1819    0.3787   -0.6930 C   0  0  0  0  0  0  0  0  0  0  0  0
   -1.1659    1.0430    0.9948 C   0  0  1  0  0  0  0  0  0  0  0  0
   -0.9799    1.3664   -0.8766 S   0  0  0  0  0  0  0  0  0  0  0  0
   -2.4272    2.3823   -1.2497 C   0  0  0  0  0  0  0  0  0  0  0  0
  1  2  1  0
  2  3  2  0
  3  4  1  0
  4  5  2  0
  4  6  1  0
  3  7  1  0
  7  8  1  0
  8  9  2  0
  8 10  1  0
 10 11  1  6
 11 12  1  0
 12 13  2  0
 14 12  1  1
 14 15  1  0
 14 16  1  0
 16 17  2  0
 17 18  1  0
 18 19  2  0
 19 20  1  0
 19 21  1  0
 21 22  2  0
 10 23  1  0
 23 24  1  6
 24 25  1  0
 25  2  1  0
 23  7  1  0
 22 16  1  0
M  END
>  <zinc_id>  (281) 
ZINC000003830391

>  <smiles>  (281) 
CC1=C(C(=O)O)N2C(=O)[C@@H](NC(=O)[C@H](N)c3ccc(O)cc3)[C@H]2SC1

$$$$

     RDKit          3D

 29 31  0  0  0  0  0  0  0  0999 V2000
   -4.4570   -2.8599   -0.7146 O   0  0  0  0  0  0  0  0  0  0  0  0
   -5.4080   -2.2871    0.3104 S   0  0  0  0  0  0  0  0  0  0  0  0
   -5.2432   -3.1132    1.5468 O   0  0  0  0  0  0  0  0  0  0  0  0
   -6.9885   -2.4560   -0.2541 O   0  0  0  0  0  0  0  0  0  0  0  0
   -5.0205   -0.6531    0.6002 O   0  0  0  0  0  0  0  0  0  0  0  0
   -3.7398   -0.1659    0.3202 C   0  0  0  0  0  0  0  0  0  0  0  0
   -3.5627    1.0283   -0.3617 C   0  0  0  0  0  0  0  0  0  0  0  0
   -2.3519    1.2358   -1.0058 C   0  0  0  0  0  0  0  0  0  0  0  0
   -1.1971    0.5516   -0.6434 C   0  0  0  0  0  0  0  0  0  0  0  0
    0.0719    1.2197   -0.9387 C   0  0  0  0  0  0  0  0  0  0  0  0
    1.2754    0.4520   -0.6023 C   0  0  0  0  0  0  0  0  0  0  0  0
    1.2883   -0.8003   -0.0222 C   0  0  0  0  0  0  0  0  0  0  0  0
    2.2016   -1.7605   -0.4098 C   0  0  0  0  0  0  0  0  0  0  0  0
    3.1844   -1.4483   -1.3423 C   0  0  0  0  0  0  0  0  0  0  0  0
    4.2485   -2.3472   -1.4432 O   0  0  0  0  0  0  0  0  0  0  0  0
    5.4319   -2.2341   -0.2128 S   0  0  0  0  0  0  0  0  0  0  0  0
    4.9790   -2.9975    0.9859 O   0  0  0  0  0  0  0  0  0  0  0  0
    5.5505   -0.7837    0.1949 O   0  0  0  0  0  0  0  0  0  0  0  0
    6.8596   -2.8130   -0.8554 O   0  0  0  0  0  0  0  0  0  0  0  0
    3.4752   -0.0913   -1.4298 C   0  0  0  0  0  0  0  0  0  0  0  0
    2.4911    0.8502   -1.1479 C   0  0  0  0  0  0  0  0  0  0  0  0
    0.1508    2.6036   -0.4313 C   0  0  0  0  0  0  0  0  0  0  0  0
   -0.7515    3.5582   -0.8743 C   0  0  0  0  0  0  0  0  0  0  0  0
   -0.8122    4.7237   -0.1450 C   0  0  0  0  0  0  0  0  0  0  0  0
    0.2126    5.0416    0.7345 C   0  0  0  0  0  0  0  0  0  0  0  0
    1.1045    4.0689    1.0983 C   0  0  0  0  0  0  0  0  0  0  0  0
    1.0051    2.8378    0.5918 N   0  0  0  0  0  0  0  0  0  0  0  0
   -1.3791   -0.4605    0.2667 C   0  0  0  0  0  0  0  0  0  0  0  0
   -2.6187   -0.8997    0.6880 C   0  0  0  0  0  0  0  0  0  0  0  0
  1  2  2  0
  2  3  2  0
  2  4  1  0
  2  5  1  0
  5  6  1  0
  6  7  2  0
  7  8  1  0
  8  9  2  0
  9 10  1  0
 10 11  1  0
 11 12  2  0
 12 13  1  0
 13 14  2  0
 14 15  1  0
 15 16  1  0
 16 17  2  0
 16 18  2  0
 16 19  1  0
 14 20  1  0
 20 21  2  0
 10 22  1  0
 22 23  2  0
 23 24  1  0
 24 25  2  0
 25 26  1  0
 26 27  2  0
  9 28  1  0
 28 29  2  0
 29  6  1  0
 21 11  1  0
 27 22  1  0
M  END
>  <zinc_id>  (282) 
ZINC000003873921

>  <smiles>  (282) 
O=S(=O)(O)Oc1ccc(C(c2ccc(OS(=O)(=O)O)cc2)c2ccccn2)cc1

$$$$

     RDKit          3D

 27 28  0  0  0  0  0  0  0  0999 V2000
   -6.1716   -0.0132    3.0480 C   0  0  0  0  0  0  0  0  0  0  0  0
   -5.4827    0.2927    2.7388 C   0  0  0  0  0  0  0  0  0  0  0  0
   -4.6847   -0.2820    1.6008 C   0  0  0  0  0  0  0  0  0  0  0  0
   -4.9253    0.4802    0.3158 C   0  0  0  0  0  0  0  0  0  0  0  0
   -4.4525   -0.3080   -0.8860 C   0  0  0  0  0  0  0  0  0  0  0  0
   -5.4480   -0.3418   -1.8420 F   0  0  0  0  0  0  0  0  0  0  0  0
   -4.2700   -1.6120   -0.4524 F   0  0  0  0  0  0  0  0  0  0  0  0
   -3.1649    0.2723   -1.4671 C   0  0  1  0  0  0  0  0  0  0  0  0
   -3.5373    0.9429   -2.6442 O   0  0  0  0  0  0  0  0  0  0  0  0
   -2.6936    1.2980   -0.5175 C   0  0  0  0  0  0  0  0  0  0  0  0
   -1.2333    1.7131   -0.6641 C   0  0  0  0  0  0  0  0  0  0  0  0
   -0.6029    0.2322   -0.5952 C   0  0  1  0  0  0  0  0  0  0  0  0
   -1.0983   -0.0560   -2.2242 C   0  0  1  0  0  0  0  0  0  0  0  0
   -0.1606   -1.4378   -2.2189 C   0  0  0  0  0  0  0  0  0  0  0  0
    1.1083   -0.9261   -1.7420 C   0  0  0  0  0  0  0  0  0  0  0  0
    2.1997   -1.2285   -2.1989 O   0  0  0  0  0  0  0  0  0  0  0  0
    0.9045    0.6213   -1.2947 C   0  0  2  0  0  0  0  0  0  0  0  0
    1.6673    0.4794    0.1618 C   0  0  0  0  0  0  0  0  0  0  0  0
    2.2501   -0.8427    0.3228 C   0  0  0  0  0  0  0  0  0  0  0  0
    3.6246   -0.8005    0.9194 C   0  0  0  0  0  0  0  0  0  0  0  0
    3.8349    0.3781    1.8428 C   0  0  0  0  0  0  0  0  0  0  0  0
    5.1805    0.1558    2.5233 C   0  0  0  0  0  0  0  0  0  0  0  0
    6.0684   -0.6702    1.6045 C   0  0  0  0  0  0  0  0  0  0  0  0
    7.4826   -0.2228    1.7205 C   0  0  0  0  0  0  0  0  0  0  0  0
    8.0279   -0.2116    2.8499 O   0  0  0  0  0  0  0  0  0  0  0  0
    7.9200    0.7445    0.8127 O   0  0  0  0  0  0  0  0  0  0  0  0
   -2.3431   -0.8079   -1.7139 O   0  0  0  0  0  0  0  0  0  0  0  0
  1  2  1  0
  2  3  1  0
  3  4  1  0
  4  5  1  0
  5  6  1  0
  5  7  1  0
  8  5  1  1
  8  9  1  0
  8 10  1  0
 10 11  1  0
 12 11  1  6
 12 13  1  0
 13 14  1  6
 14 15  1  0
 15 16  2  0
 15 17  1  0
 17 18  1  1
 18 19  1  0
 19 20  1  0
 20 21  1  0
 21 22  1  0
 22 23  1  0
 23 24  1  0
 24 25  2  0
 24 26  1  0
 13 27  1  0
 27  8  1  0
 17 12  1  0
M  END
>  <zinc_id>  (283) 
ZINC000004217732

>  <smiles>  (283) 
CCCCC(F)(F)[C@@]1(O)CC[C@H]2[C@@H](CC(=O)[C@@H]2CCCCCCC(=O)O)O1

$$$$

     RDKit          3D

 33 35  0  0  0  0  0  0  0  0999 V2000
    8.2294    3.4695   -0.1672 C   0  0  0  0  0  0  0  0  0  0  0  0
    7.8168    2.1106    0.1447 N   0  0  0  0  0  0  0  0  0  0  0  0
    6.5432    1.7964    0.6868 C   0  0  0  0  0  0  0  0  0  0  0  0
    5.6015    2.5889    0.4352 O   0  0  0  0  0  0  0  0  0  0  0  0
    6.1716    0.3953    0.9031 C   0  0  0  0  0  0  0  0  0  0  0  0
    5.4867   -0.2185   -0.1386 C   0  0  0  0  0  0  0  0  0  0  0  0
    4.9551   -1.4651    0.1702 C   0  0  0  0  0  0  0  0  0  0  0  0
    3.8989   -1.9845   -0.5731 O   0  0  0  0  0  0  0  0  0  0  0  0
    2.6725   -1.3179   -0.6458 C   0  0  0  0  0  0  0  0  0  0  0  0
    2.0456   -1.0875    0.5675 C   0  0  0  0  0  0  0  0  0  0  0  0
    0.6856   -0.8695    0.6242 C   0  0  0  0  0  0  0  0  0  0  0  0
   -0.1320   -1.1625   -0.4520 C   0  0  0  0  0  0  0  0  0  0  0  0
   -1.4146   -1.7791   -0.2986 N   0  0  0  0  0  0  0  0  0  0  0  0
   -2.5948   -1.2458   -0.9081 C   0  0  0  0  0  0  0  0  0  0  0  0
   -2.6225    0.0101   -1.0798 O   0  0  0  0  0  0  0  0  0  0  0  0
   -3.8533   -1.8998   -0.8672 N   0  0  0  0  0  0  0  0  0  0  0  0
   -5.0425   -1.2504   -0.3975 C   0  0  0  0  0  0  0  0  0  0  0  0
   -5.5386   -1.5824    0.8574 C   0  0  0  0  0  0  0  0  0  0  0  0
   -5.9799   -0.6104    1.7475 C   0  0  0  0  0  0  0  0  0  0  0  0
   -6.0261    0.7237    1.3617 C   0  0  0  0  0  0  0  0  0  0  0  0
   -5.7683    2.0194    2.5249 Cl  0  0  0  0  0  0  0  0  0  0  0  0
   -5.9583    0.9583   -0.0052 C   0  0  0  0  0  0  0  0  0  0  0  0
   -6.1638    2.3476   -0.4922 C   0  0  0  0  0  0  0  0  0  0  0  0
   -7.5301    2.5886   -0.4710 F   0  0  0  0  0  0  0  0  0  0  0  0
   -5.6620    2.5284   -1.7554 F   0  0  0  0  0  0  0  0  0  0  0  0
   -5.5743    3.2005    0.4217 F   0  0  0  0  0  0  0  0  0  0  0  0
   -5.3918    0.0153   -0.8521 C   0  0  0  0  0  0  0  0  0  0  0  0
    0.5046   -1.3605   -1.6704 C   0  0  0  0  0  0  0  0  0  0  0  0
   -0.2995   -1.2921   -2.7705 F   0  0  0  0  0  0  0  0  0  0  0  0
    1.8789   -1.5171   -1.7687 C   0  0  0  0  0  0  0  0  0  0  0  0
    5.6702   -2.2160    1.0779 C   0  0  0  0  0  0  0  0  0  0  0  0
    6.5425   -1.5996    1.9631 C   0  0  0  0  0  0  0  0  0  0  0  0
    6.8490   -0.2942    1.8273 N   0  0  0  0  0  0  0  0  0  0  0  0
  1  2  1  0
  2  3  1  0
  3  4  2  0
  3  5  1  0
  5  6  2  0
  6  7  1  0
  7  8  1  0
  8  9  1  0
  9 10  2  0
 10 11  1  0
 11 12  2  0
 12 13  1  0
 13 14  1  0
 14 15  2  0
 14 16  1  0
 16 17  1  0
 17 18  2  0
 18 19  1  0
 19 20  2  0
 20 21  1  0
 20 22  1  0
 22 23  1  0
 23 24  1  0
 23 25  1  0
 23 26  1  0
 22 27  2  0
 12 28  1  0
 28 29  1  0
 28 30  2  0
  7 31  2  0
 31 32  1  0
 32 33  2  0
 33  5  1  0
 30  9  1  0
 27 17  1  0
M  END
>  <zinc_id>  (284) 
ZINC000006745272

>  <smiles>  (284) 
CNC(=O)c1cc(Oc2ccc(NC(=O)Nc3ccc(Cl)c(C(F)(F)F)c3)c(F)c2)ccn1

$$$$

     RDKit          3D

 24 26  0  0  0  0  0  0  0  0999 V2000
    5.9482    0.2281   -0.0346 C   0  0  0  0  0  0  0  0  0  0  0  0
    4.5029    0.6218   -0.3930 C   0  0  0  0  0  0  0  0  0  0  0  0
    4.3964    1.6682    0.7197 C   0  0  0  0  0  0  0  0  0  0  0  0
    3.6853   -0.4209   -0.2121 N   0  0  1  0  0  0  0  0  0  0  0  0
    4.4851   -1.4616    0.4772 C   0  0  0  0  0  0  0  0  0  0  0  0
    2.5630   -0.2537    0.8307 C   0  0  2  0  0  0  0  0  0  0  0  0
    1.5861   -1.4604    0.2778 C   0  0  0  0  0  0  0  0  0  0  0  0
    2.6482   -2.3415   -0.3854 C   0  0  0  0  0  0  0  0  0  0  0  0
    3.0826   -1.1180   -1.4416 C   0  0  1  0  0  0  0  0  0  0  0  0
    1.5107   -0.7541   -1.5132 C   0  0  0  0  0  0  0  0  0  0  0  0
    1.0852    0.7552   -1.2350 C   0  0  1  0  0  0  0  0  0  0  0  0
   -0.0414    0.4834   -0.1907 O   0  0  0  0  0  0  0  0  0  0  0  0
   -1.2936    0.4433   -0.5869 C   0  0  0  0  0  0  0  0  0  0  0  0
   -1.5126   -0.5413   -1.2606 O   0  0  0  0  0  0  0  0  0  0  0  0
   -2.3871    1.5862   -0.3701 C   0  0  2  0  0  0  0  0  0  0  0  0
   -2.1611    1.7526    1.2463 C   0  0  0  0  0  0  0  0  0  0  0  0
   -1.6580    0.6156    1.7721 O   0  0  0  0  0  0  0  0  0  0  0  0
   -3.6137    0.5740   -0.1856 C   0  0  0  0  0  0  0  0  0  0  0  0
   -3.5360   -0.5391    0.5680 C   0  0  0  0  0  0  0  0  0  0  0  0
   -4.7271   -1.1301    0.9980 C   0  0  0  0  0  0  0  0  0  0  0  0
   -5.9308   -0.6638    0.5137 C   0  0  0  0  0  0  0  0  0  0  0  0
   -5.8987    0.0805   -0.5963 C   0  0  0  0  0  0  0  0  0  0  0  0
   -4.7629    0.8319   -0.9048 C   0  0  0  0  0  0  0  0  0  0  0  0
    2.0293    1.0438    0.0329 C   0  0  0  0  0  0  0  0  0  0  0  0
  1  2  1  0
  2  3  1  0
  4  2  1  6
  4  5  1  0
  4  6  1  0
  6  7  1  6
  7  8  1  0
  9  8  1  1
  9 10  1  0
 10 11  1  0
 11 12  1  1
 12 13  1  0
 13 14  2  0
 15 13  1  6
 15 16  1  0
 16 17  1  0
 15 18  1  0
 18 19  2  0
 19 20  1  0
 20 21  2  0
 21 22  1  0
 22 23  2  0
 11 24  1  0
  9  4  1  0
 23 18  1  0
 24  6  1  0
M  CHG  1   4   1
M  END
>  <zinc_id>  (285) 
ZINC000253476025

>  <smiles>  (285) 
CC(C)[N@+]1(C)[C@H]2CC[C@@H]1C[C@H](OC(=O)[C@H](CO)c1ccccc1)C2

$$$$

     RDKit          3D

 13 14  0  0  0  0  0  0  0  0999 V2000
   -3.6728    1.5182   -0.1085 C   0  0  0  0  0  0  0  0  0  0  0  0
   -2.5429    0.6827    0.3602 C   0  0  0  0  0  0  0  0  0  0  0  0
   -1.2958    0.9447    0.4931 N   0  0  0  0  0  0  0  0  0  0  0  0
   -0.5292   -0.1215   -0.0177 N   0  0  0  0  0  0  0  0  0  0  0  0
    0.8857   -0.1635   -0.2301 C   0  0  0  0  0  0  0  0  0  0  0  0
    1.7185   -0.8989    0.6053 C   0  0  0  0  0  0  0  0  0  0  0  0
    2.9468   -0.3812    0.9965 C   0  0  0  0  0  0  0  0  0  0  0  0
    3.5804    0.5181    0.1749 C   0  0  0  0  0  0  0  0  0  0  0  0
    2.7761    1.2853   -0.6544 C   0  0  0  0  0  0  0  0  0  0  0  0
    1.5276    0.7926   -1.0081 C   0  0  0  0  0  0  0  0  0  0  0  0
   -1.4002   -1.2554   -0.1029 C   0  0  0  0  0  0  0  0  0  0  0  0
   -1.3302   -2.1207   -1.0272 O   0  0  0  0  0  0  0  0  0  0  0  0
   -2.6640   -0.8003    0.5190 C   0  0  0  0  0  0  0  0  0  0  0  0
  1  2  1  0
  2  3  2  0
  3  4  1  0
  4  5  1  0
  5  6  2  0
  6  7  1  0
  7  8  2  0
  8  9  1  0
  9 10  2  0
  4 11  1  0
 11 12  2  0
 11 13  1  0
 13  2  1  0
 10  5  1  0
M  END
>  <zinc_id>  (286) 
ZINC000018203737

>  <smiles>  (286) 
CC1=NN(c2ccccc2)C(=O)C1

$$$$

     RDKit          3D

 65 73  0  0  0  0  0  0  0  0999 V2000
   -5.1669    0.8301   -4.4807 C   0  0  0  0  0  0  0  0  0  0  0  0
   -4.7206    1.7366   -3.9424 O   0  0  0  0  0  0  0  0  0  0  0  0
   -4.9430    2.0613   -2.6397 C   0  0  0  0  0  0  0  0  0  0  0  0
   -5.9435    0.9373   -2.0006 C   0  0  1  0  0  0  0  0  0  0  0  0
   -4.8129    0.3867   -0.9588 C   0  0  0  0  0  0  0  0  0  0  0  0
   -6.0501   -0.2868   -0.0881 C   0  0  1  0  0  0  0  0  0  0  0  0
   -5.2331   -0.4090    1.3058 C   0  0  0  0  0  0  0  0  0  0  0  0
   -5.5061   -1.4903    2.0838 N   0  0  0  0  0  0  0  0  0  0  0  0
   -4.3431   -2.0818    2.4563 C   0  0  0  0  0  0  0  0  0  0  0  0
   -3.3308   -1.1612    2.2112 C   0  0  0  0  0  0  0  0  0  0  0  0
   -1.9144   -1.4516    1.9242 C   0  0  0  0  0  0  0  0  0  0  0  0
   -0.9694   -0.8911    2.7753 C   0  0  0  0  0  0  0  0  0  0  0  0
    0.3315   -0.6546    2.3440 C   0  0  0  0  0  0  0  0  0  0  0  0
    0.5537   -0.5945    0.9951 C   0  0  0  0  0  0  0  0  0  0  0  0
   -0.2104   -1.4216    0.1830 C   0  0  0  0  0  0  0  0  0  0  0  0
   -1.4451   -1.8105    0.6876 C   0  0  0  0  0  0  0  0  0  0  0  0
   -0.0701   -1.3211   -1.3039 C   0  0  0  0  0  0  0  0  0  0  0  0
    1.1005   -0.6485   -1.6840 O   0  0  0  0  0  0  0  0  0  0  0  0
    2.0872   -0.2199   -0.8283 C   0  0  0  0  0  0  0  0  0  0  0  0
    3.3558    0.0734   -1.2410 C   0  0  0  0  0  0  0  0  0  0  0  0
    4.0881    1.0505   -0.5775 C   0  0  0  0  0  0  0  0  0  0  0  0
    5.1239    1.6913   -1.2504 C   0  0  0  0  0  0  0  0  0  0  0  0
    5.8246    1.1880   -2.2991 N   0  0  0  0  0  0  0  0  0  0  0  0
    7.1013    1.4726   -2.2234 C   0  0  0  0  0  0  0  0  0  0  0  0
    8.2937    0.5795   -2.8506 C   0  0  2  0  0  0  0  0  0  0  0  0
    7.6039    0.5974   -4.3519 C   0  0  0  0  0  0  0  0  0  0  0  0
    8.5505   -0.5261   -4.6623 C   0  0  0  0  0  0  0  0  0  0  0  0
    7.8105   -1.6791   -3.7544 C   0  0  2  0  0  0  0  0  0  0  0  0
    6.3032   -1.2851   -4.3057 C   0  0  0  0  0  0  0  0  0  0  0  0
    7.6567   -0.8065   -2.4578 N   0  0  0  0  0  0  0  0  0  0  0  0
    8.2911   -1.4871   -1.3460 C   0  0  0  0  0  0  0  0  0  0  0  0
    7.5409   -2.3844   -0.8498 O   0  0  0  0  0  0  0  0  0  0  0  0
    8.7474   -0.4293   -0.2034 C   0  0  1  0  0  0  0  0  0  0  0  0
    9.3477   -1.5231    0.7722 N   0  0  0  0  0  0  0  0  0  0  0  0
    9.2849   -0.9319    2.0783 C   0  0  0  0  0  0  0  0  0  0  0  0
    8.2071   -0.3657    2.4356 O   0  0  0  0  0  0  0  0  0  0  0  0
   10.2654   -1.0262    3.0347 O   0  0  0  0  0  0  0  0  0  0  0  0
   10.0773   -0.5845    4.3782 C   0  0  0  0  0  0  0  0  0  0  0  0
   10.2002   -0.1666   -0.9383 C   0  0  0  0  0  0  0  0  0  0  0  0
   10.9384    0.7518   -0.0247 C   0  0  0  0  0  0  0  0  0  0  0  0
   10.8160   -1.4870   -1.1929 C   0  0  0  0  0  0  0  0  0  0  0  0
    7.2834    2.2346   -1.1515 N   0  0  0  0  0  0  0  0  0  0  0  0
    6.0915    2.3644   -0.5144 C   0  0  0  0  0  0  0  0  0  0  0  0
    5.7361    2.6965    0.7813 C   0  0  0  0  0  0  0  0  0  0  0  0
    4.6183    2.1623    1.4100 C   0  0  0  0  0  0  0  0  0  0  0  0
    3.8559    1.1998    0.7674 C   0  0  0  0  0  0  0  0  0  0  0  0
    2.6247    0.7745    1.2586 C   0  0  0  0  0  0  0  0  0  0  0  0
    1.7552    0.0300    0.4744 C   0  0  0  0  0  0  0  0  0  0  0  0
   -3.9624   -0.2037    1.4851 N   0  0  0  0  0  0  0  0  0  0  0  0
   -6.6165    1.1362    0.2941 N   0  0  0  0  0  0  0  0  0  0  0  0
   -7.7498    1.2194    1.1744 C   0  0  0  0  0  0  0  0  0  0  0  0
   -7.6895    1.0202    2.3973 O   0  0  0  0  0  0  0  0  0  0  0  0
   -9.1393    0.7923    0.4464 C   0  0  2  0  0  0  0  0  0  0  0  0
  -10.0283    1.5300    1.5381 N   0  0  0  0  0  0  0  0  0  0  0  0
  -11.3937    1.6345    1.1254 C   0  0  0  0  0  0  0  0  0  0  0  0
  -11.9158    0.7497    0.4200 O   0  0  0  0  0  0  0  0  0  0  0  0
  -12.0699    2.7943    1.4595 O   0  0  0  0  0  0  0  0  0  0  0  0
  -13.3524    3.0805    0.9732 C   0  0  0  0  0  0  0  0  0  0  0  0
   -9.1583   -0.6601    1.1634 C   0  0  0  0  0  0  0  0  0  0  0  0
   -9.0248   -1.7058    0.2598 C   0  0  0  0  0  0  0  0  0  0  0  0
   -9.0145   -2.9865    0.7573 C   0  0  0  0  0  0  0  0  0  0  0  0
   -9.5601   -3.2022    1.9938 C   0  0  0  0  0  0  0  0  0  0  0  0
   -9.8058   -2.1282    2.8397 C   0  0  0  0  0  0  0  0  0  0  0  0
   -9.8479   -0.8612    2.2865 C   0  0  0  0  0  0  0  0  0  0  0  0
   -6.4781    1.9618   -0.8497 C   0  0  0  0  0  0  0  0  0  0  0  0
  1  2  1  0
  2  3  1  0
  4  3  1  6
  4  5  1  0
  5  6  1  0
  6  7  1  1
  7  8  2  0
  8  9  1  0
  9 10  2  0
 10 11  1  0
 11 12  2  0
 12 13  1  0
 13 14  2  0
 14 15  1  0
 15 16  2  0
 15 17  1  0
 17 18  1  0
 18 19  1  0
 19 20  2  0
 20 21  1  0
 21 22  2  0
 22 23  1  0
 23 24  2  0
 25 24  1  1
 25 26  1  0
 26 27  1  0
 27 28  1  0
 28 29  1  6
 28 30  1  0
 30 31  1  0
 31 32  2  0
 33 31  1  6
 33 34  1  0
 34 35  1  0
 35 36  2  0
 35 37  1  0
 37 38  1  0
 33 39  1  0
 39 40  1  0
 39 41  1  0
 24 42  1  0
 42 43  1  0
 43 44  2  0
 44 45  1  0
 45 46  2  0
 46 47  1  0
 47 48  2  0
 10 49  1  0
  6 50  1  0
 50 51  1  0
 51 52  2  0
 53 51  1  1
 53 54  1  0
 54 55  1  0
 55 56  2  0
 55 57  1  0
 57 58  1  0
 53 59  1  0
 59 60  2  0
 60 61  1  0
 61 62  2  0
 62 63  1  0
 63 64  2  0
 50 65  1  0
 65  4  1  0
 49  7  1  0
 64 59  1  0
 16 11  1  0
 48 19  1  0
 48 14  1  0
 46 21  1  0
 43 22  1  0
 30 25  1  0
M  END
>  <zinc_id>  (287) 
ZINC000203686879

>  <smiles>  (287) 
COC[C@H]1C[C@@H](c2ncc(-c3ccc4c(c3)COc3cc5c(ccc6[nH]c([C@@H]7CC[C@H](C)N7C(=O)[C@@H](NC(=O)OC)C(C)C)nc65)cc3-4)[nH]2)N(C(=O)[C@H](NC(=O)OC)c2ccccc2)C1

$$$$

     RDKit          3D

 24 27  0  0  0  0  0  0  0  0999 V2000
    5.6256    0.6246    0.0581 O   0  0  0  0  0  0  0  0  0  0  0  0
    4.4661    1.1024    0.0621 C   0  0  0  0  0  0  0  0  0  0  0  0
    4.3474    2.4139   -0.4109 O   0  0  0  0  0  0  0  0  0  0  0  0
    3.2802    0.3193    0.4228 C   0  0  0  0  0  0  0  0  0  0  0  0
    2.9757   -0.8653   -0.2351 C   0  0  0  0  0  0  0  0  0  0  0  0
    1.7088   -1.3445   -0.2549 N   0  0  0  0  0  0  0  0  0  0  0  0
    1.4960   -2.5477   -1.0366 C   0  0  0  0  0  0  0  0  0  0  0  0
    0.9821   -3.7826   -0.3489 C   0  0  0  0  0  0  0  0  0  0  0  0
    0.0999   -2.9491   -1.3185 C   0  0  0  0  0  0  0  0  0  0  0  0
    0.6578   -0.6036    0.1678 C   0  0  0  0  0  0  0  0  0  0  0  0
   -0.6136   -0.8145   -0.3395 C   0  0  0  0  0  0  0  0  0  0  0  0
   -1.5878    0.1700   -0.3079 C   0  0  0  0  0  0  0  0  0  0  0  0
   -2.9715   -0.1800   -0.4298 N   0  0  0  0  0  0  0  0  0  0  0  0
   -3.8582    0.8119   -0.9833 C   0  0  0  0  0  0  0  0  0  0  0  0
   -4.9500    1.2243   -0.0358 C   0  0  0  0  0  0  0  0  0  0  0  0
   -5.3536    0.1898    0.8753 N   0  0  0  0  0  0  0  0  0  0  0  0
   -4.9420   -1.1325    0.4851 C   0  0  0  0  0  0  0  0  0  0  0  0
   -3.4398   -1.2094    0.4905 C   0  0  0  0  0  0  0  0  0  0  0  0
   -1.3022    1.3216    0.4067 C   0  0  0  0  0  0  0  0  0  0  0  0
   -2.0729    2.4118    0.1306 F   0  0  0  0  0  0  0  0  0  0  0  0
   -0.1349    1.4104    1.1459 C   0  0  0  0  0  0  0  0  0  0  0  0
    0.9174    0.5305    0.9273 C   0  0  0  0  0  0  0  0  0  0  0  0
    2.2367    0.8794    1.1497 C   0  0  0  0  0  0  0  0  0  0  0  0
    2.4330    2.0194    1.6692 O   0  0  0  0  0  0  0  0  0  0  0  0
  1  2  2  0
  2  3  1  0
  2  4  1  0
  4  5  2  0
  5  6  1  0
  6  7  1  0
  7  8  1  0
  8  9  1  0
  6 10  1  0
 10 11  2  0
 11 12  1  0
 12 13  1  0
 13 14  1  0
 14 15  1  0
 15 16  1  0
 16 17  1  0
 17 18  1  0
 12 19  2  0
 19 20  1  0
 19 21  1  0
 21 22  2  0
 22 23  1  0
 23 24  2  0
 23  4  1  0
  9  7  1  0
 22 10  1  0
 18 13  1  0
M  END
>  <zinc_id>  (288) 
ZINC000000020220

>  <smiles>  (288) 
O=C(O)c1cn(C2CC2)c2cc(N3CCNCC3)c(F)cc2c1=O

$$$$

     RDKit          3D

 19 20  0  0  0  0  0  0  0  0999 V2000
   -0.8615    2.0777    1.0642 C   0  0  0  0  0  0  0  0  0  0  0  0
    0.0285    1.0122    0.5680 C   0  0  0  0  0  0  0  0  0  0  0  0
    1.4071    1.1533    0.6862 C   0  0  0  0  0  0  0  0  0  0  0  0
    2.2428    0.1863    0.1674 C   0  0  0  0  0  0  0  0  0  0  0  0
    3.6945    0.4279    0.1002 C   0  0  0  0  0  0  0  0  0  0  0  0
    4.2286    0.4950    1.5272 C   0  0  0  0  0  0  0  0  0  0  0  0
    3.9465    1.7620   -0.5926 C   0  0  0  0  0  0  0  0  0  0  0  0
    4.4158   -0.6347   -0.6770 C   0  0  0  0  0  0  0  0  0  0  0  0
    1.6429   -1.0196   -0.1650 C   0  0  0  0  0  0  0  0  0  0  0  0
    2.4572   -2.1569   -0.1680 O   0  0  0  0  0  0  0  0  0  0  0  0
    0.2653   -1.1415   -0.3100 C   0  0  0  0  0  0  0  0  0  0  0  0
   -0.2656   -2.2931   -1.0746 C   0  0  0  0  0  0  0  0  0  0  0  0
   -0.5445   -0.0194   -0.1674 C   0  0  0  0  0  0  0  0  0  0  0  0
   -1.7127    0.2371   -1.0490 C   0  0  0  0  0  0  0  0  0  0  0  0
   -3.0053   -0.0607   -0.3552 C   0  0  0  0  0  0  0  0  0  0  0  0
   -3.8908   -0.8191   -0.9313 N   0  0  0  0  0  0  0  0  0  0  0  0
   -5.1523   -0.7614   -0.2503 C   0  0  0  0  0  0  0  0  0  0  0  0
   -5.1223    0.5548    0.4987 C   0  0  0  0  0  0  0  0  0  0  0  0
   -3.7744    1.0002    0.2259 N   0  0  0  0  0  0  0  0  0  0  0  0
  1  2  1  0
  2  3  2  0
  3  4  1  0
  4  5  1  0
  5  6  1  0
  5  7  1  0
  5  8  1  0
  4  9  2  0
  9 10  1  0
  9 11  1  0
 11 12  1  0
 11 13  2  0
 13 14  1  0
 14 15  1  0
 15 16  2  0
 16 17  1  0
 17 18  1  0
 18 19  1  0
 13  2  1  0
 19 15  1  0
M  END
>  <zinc_id>  (289) 
ZINC000000057435

>  <smiles>  (289) 
Cc1cc(C(C)(C)C)c(O)c(C)c1CC1=NCCN1

$$$$

     RDKit          3D

 18 19  0  0  0  0  0  0  0  0999 V2000
   -0.3790   -2.3088   -1.1761 C   0  0  0  0  0  0  0  0  0  0  0  0
    0.3575   -1.2384   -0.4760 C   0  0  0  0  0  0  0  0  0  0  0  0
    1.7454   -1.1667   -0.5235 C   0  0  0  0  0  0  0  0  0  0  0  0
    2.4400   -0.0677   -0.0344 C   0  0  0  0  0  0  0  0  0  0  0  0
    3.7266    0.3295   -0.6421 C   0  0  0  0  0  0  0  0  0  0  0  0
    4.1072   -0.6551   -1.7164 C   0  0  0  0  0  0  0  0  0  0  0  0
    3.6601    1.6997   -1.2906 C   0  0  0  0  0  0  0  0  0  0  0  0
    4.7460    0.3526    0.4918 C   0  0  0  0  0  0  0  0  0  0  0  0
    1.7069    0.7798    0.7839 C   0  0  0  0  0  0  0  0  0  0  0  0
    0.3211    0.7312    0.7914 C   0  0  0  0  0  0  0  0  0  0  0  0
   -0.5060    1.6940    1.5813 C   0  0  0  0  0  0  0  0  0  0  0  0
   -0.3681   -0.1310   -0.0527 C   0  0  0  0  0  0  0  0  0  0  0  0
   -1.6123    0.3133   -0.7547 C   0  0  0  0  0  0  0  0  0  0  0  0
   -2.8331   -0.0258    0.0066 C   0  0  0  0  0  0  0  0  0  0  0  0
   -3.6140   -1.0517   -0.1227 N   0  0  0  0  0  0  0  0  0  0  0  0
   -5.0098   -0.6258   -0.0776 C   0  0  0  0  0  0  0  0  0  0  0  0
   -4.9448    0.5167    0.8997 C   0  0  0  0  0  0  0  0  0  0  0  0
   -3.5438    0.8542    0.8814 N   0  0  0  0  0  0  0  0  0  0  0  0
  1  2  1  0
  2  3  2  0
  3  4  1  0
  4  5  1  0
  5  6  1  0
  5  7  1  0
  5  8  1  0
  4  9  2  0
  9 10  1  0
 10 11  1  0
 10 12  2  0
 12 13  1  0
 13 14  1  0
 14 15  2  0
 15 16  1  0
 16 17  1  0
 17 18  1  0
 12  2  1  0
 18 14  1  0
M  END
>  <zinc_id>  (290) 
ZINC000000057534

>  <smiles>  (290) 
Cc1cc(C(C)(C)C)cc(C)c1CC1=NCCN1

$$$$

     RDKit          3D

 22 24  0  0  0  0  0  0  0  0999 V2000
   -0.2877   -0.0367   -1.3793 O   0  0  0  0  0  0  0  0  0  0  0  0
   -0.4742   -0.1019   -0.1250 C   0  0  1  0  0  0  0  0  0  0  0  0
    0.8954    0.0545    0.5293 C   0  0  0  0  0  0  0  0  0  0  0  0
    1.6896    1.0254   -0.2982 C   0  0  0  0  0  0  0  0  0  0  0  0
    3.0375    1.2011    0.1625 N   0  0  0  0  0  0  0  0  0  0  0  0
    4.0375    1.0321   -0.8486 C   0  0  0  0  0  0  0  0  0  0  0  0
    4.4209   -0.4207   -1.0764 C   0  0  0  0  0  0  0  0  0  0  0  0
    4.9982   -0.9120    0.2460 C   0  0  0  0  0  0  0  0  0  0  0  0
    3.8431   -0.8656    1.2347 C   0  0  0  0  0  0  0  0  0  0  0  0
    3.3285    0.5347    1.4040 C   0  0  0  0  0  0  0  0  0  0  0  0
   -1.3490    1.0085    0.2762 C   0  0  0  0  0  0  0  0  0  0  0  0
   -0.8444    2.2857    0.0529 C   0  0  0  0  0  0  0  0  0  0  0  0
   -1.6785    3.3771   -0.1574 C   0  0  0  0  0  0  0  0  0  0  0  0
   -3.0493    3.2255   -0.0393 C   0  0  0  0  0  0  0  0  0  0  0  0
   -3.5145    2.0712    0.5258 C   0  0  0  0  0  0  0  0  0  0  0  0
   -2.7164    0.9434    0.3978 C   0  0  0  0  0  0  0  0  0  0  0  0
   -0.9566   -1.4629    0.2215 C   0  0  0  0  0  0  0  0  0  0  0  0
   -2.0358   -1.5412    1.2303 C   0  0  0  0  0  0  0  0  0  0  0  0
   -2.6398   -2.9019    1.3332 C   0  0  0  0  0  0  0  0  0  0  0  0
   -2.9133   -3.5652    0.0163 C   0  0  0  0  0  0  0  0  0  0  0  0
   -2.6154   -2.6948   -1.1730 C   0  0  0  0  0  0  0  0  0  0  0  0
   -1.1758   -2.2563   -1.0272 C   0  0  0  0  0  0  0  0  0  0  0  0
  2  1  1  6
  2  3  1  0
  3  4  1  0
  4  5  1  0
  5  6  1  0
  6  7  1  0
  7  8  1  0
  8  9  1  0
  9 10  1  0
  2 11  1  0
 11 12  2  0
 12 13  1  0
 13 14  2  0
 14 15  1  0
 15 16  2  0
  2 17  1  0
 17 18  1  0
 18 19  1  0
 19 20  1  0
 20 21  1  0
 21 22  1  0
 10  5  1  0
 16 11  1  0
 22 17  1  0
M  END
>  <zinc_id>  (291) 
ZINC000000968273

>  <smiles>  (291) 
O[C@@](CCN1CCCCC1)(c1ccccc1)C1CCCCC1

$$$$

     RDKit          3D

 28 30  0  0  0  0  0  0  0  0999 V2000
    5.5577   -1.2108   -1.5686 O   0  0  0  0  0  0  0  0  0  0  0  0
    5.9573   -0.1137   -1.0748 C   0  0  0  0  0  0  0  0  0  0  0  0
    6.2645    0.8934   -1.9907 O   0  0  0  0  0  0  0  0  0  0  0  0
    5.4317    0.3026    0.2315 C   0  0  0  0  0  0  0  0  0  0  0  0
    4.1136    0.0261    0.4732 C   0  0  0  0  0  0  0  0  0  0  0  0
    3.5386    0.0497    1.7342 C   0  0  0  0  0  0  0  0  0  0  0  0
    2.1369    0.2942    1.8642 N   0  0  0  0  0  0  0  0  0  0  0  0
    1.2462   -0.4453    1.3696 N   0  0  0  0  0  0  0  0  0  0  0  0
    0.0529    0.0556    0.7550 C   0  0  0  0  0  0  0  0  0  0  0  0
    0.1906    0.4768   -0.5617 C   0  0  0  0  0  0  0  0  0  0  0  0
   -0.8637    0.3796   -1.4595 C   0  0  0  0  0  0  0  0  0  0  0  0
   -2.1193    0.0083   -1.0330 C   0  0  0  0  0  0  0  0  0  0  0  0
   -3.1708   -0.7388   -2.2085 S   0  0  0  0  0  0  0  0  0  0  0  0
   -2.4817   -1.9384   -2.8065 O   0  0  0  0  0  0  0  0  0  0  0  0
   -3.4236    0.2723   -3.2873 O   0  0  0  0  0  0  0  0  0  0  0  0
   -4.6600   -1.2493   -1.5232 N   0  0  0  0  0  0  0  0  0  0  0  0
   -5.3925   -0.4720   -0.5791 C   0  0  0  0  0  0  0  0  0  0  0  0
   -6.5270    0.1877   -1.0275 C   0  0  0  0  0  0  0  0  0  0  0  0
   -7.5525    0.4936   -0.1498 C   0  0  0  0  0  0  0  0  0  0  0  0
   -7.2458    0.3902    1.1987 C   0  0  0  0  0  0  0  0  0  0  0  0
   -6.0640   -0.2121    1.6088 C   0  0  0  0  0  0  0  0  0  0  0  0
   -5.4123   -0.9466    0.6899 N   0  0  0  0  0  0  0  0  0  0  0  0
   -2.2934   -0.1277    0.3316 C   0  0  0  0  0  0  0  0  0  0  0  0
   -1.2067   -0.2585    1.1873 C   0  0  0  0  0  0  0  0  0  0  0  0
    4.3700    0.4744    2.7606 C   0  0  0  0  0  0  0  0  0  0  0  0
    5.6736    0.8859    2.5141 C   0  0  0  0  0  0  0  0  0  0  0  0
    6.2594    0.4902    1.3226 C   0  0  0  0  0  0  0  0  0  0  0  0
    7.6205    0.1846    1.2288 O   0  0  0  0  0  0  0  0  0  0  0  0
  1  2  2  0
  2  3  1  0
  2  4  1  0
  4  5  2  0
  5  6  1  0
  6  7  1  0
  7  8  2  0
  8  9  1  0
  9 10  2  0
 10 11  1  0
 11 12  2  0
 12 13  1  0
 13 14  2  0
 13 15  2  0
 13 16  1  0
 16 17  1  0
 17 18  2  0
 18 19  1  0
 19 20  2  0
 20 21  1  0
 21 22  2  0
 12 23  1  0
 23 24  2  0
  6 25  2  0
 25 26  1  0
 26 27  2  0
 27 28  1  0
 27  4  1  0
 24  9  1  0
 22 17  1  0
M  END
>  <zinc_id>  (292) 
ZINC000003831490

>  <smiles>  (292) 
O=C(O)c1cc(/N=N/c2ccc(S(=O)(=O)Nc3ccccn3)cc2)ccc1O

$$$$

     RDKit          3D

 24 27  0  0  0  0  0  0  0  0999 V2000
   -4.7270    0.6071    1.4484 C   0  0  0  0  0  0  0  0  0  0  0  0
   -4.2369    0.3542    0.0949 C   0  0  2  0  0  0  0  0  0  0  0  0
   -4.9403    1.1360   -0.8347 O   0  0  0  0  0  0  0  0  0  0  0  0
   -4.4383   -1.0970   -0.3383 C   0  0  0  0  0  0  0  0  0  0  0  0
   -3.1172   -1.8087   -0.1173 C   0  0  0  0  0  0  0  0  0  0  0  0
   -2.3092   -0.7329    0.7815 C   0  0  1  0  0  0  0  0  0  0  0  0
   -0.8855   -0.8946   -0.0988 C   0  0  2  0  0  0  0  0  0  0  0  0
   -0.3550   -2.1478    0.7518 C   0  0  0  0  0  0  0  0  0  0  0  0
    0.9792   -2.2979    0.0189 C   0  0  0  0  0  0  0  0  0  0  0  0
    1.9814   -1.2730    0.7990 C   0  0  1  0  0  0  0  0  0  0  0  0
    3.1068   -1.4015   -0.3747 C   0  0  0  0  0  0  0  0  0  0  0  0
    3.9356   -0.1882   -0.3164 C   0  0  0  0  0  0  0  0  0  0  0  0
    5.0664   -0.2643   -0.8708 O   0  0  0  0  0  0  0  0  0  0  0  0
    3.5897    0.9709    0.5153 C   0  0  0  0  0  0  0  0  0  0  0  0
    4.4903    1.9354    0.5545 C   0  0  0  0  0  0  0  0  0  0  0  0
    5.4134    2.1682   -0.4696 O   0  0  0  0  0  0  0  0  0  0  0  0
    2.1187    1.2307    0.6215 C   0  0  0  0  0  0  0  0  0  0  0  0
    1.3271    0.0592    0.1409 C   0  0  1  0  0  0  0  0  0  0  0  0
    1.1562   -0.1038   -1.2843 C   0  0  0  0  0  0  0  0  0  0  0  0
   -0.0898    0.1987    0.9043 C   0  0  1  0  0  0  0  0  0  0  0  0
   -0.5669    1.4552   -0.0027 C   0  0  0  0  0  0  0  0  0  0  0  0
   -2.0377    1.6414    0.1875 C   0  0  0  0  0  0  0  0  0  0  0  0
   -2.8079    0.4718   -0.1784 C   0  0  2  0  0  0  0  0  0  0  0  0
   -2.6530   -0.0190   -1.6158 C   0  0  0  0  0  0  0  0  0  0  0  0
  2  1  1  1
  2  3  1  0
  2  4  1  0
  4  5  1  0
  6  5  1  6
  6  7  1  0
  7  8  1  1
  8  9  1  0
 10  9  1  6
 10 11  1  0
 11 12  1  0
 12 13  2  0
 12 14  1  0
 14 15  2  0
 15 16  1  0
 14 17  1  0
 17 18  1  0
 18 19  1  6
 18 20  1  0
 20 21  1  6
 21 22  1  0
 22 23  1  0
 23 24  1  6
 23  2  1  0
 23  6  1  0
 20  7  1  0
 18 10  1  0
M  END
>  <zinc_id>  (293) 
ZINC000118912450

>  <smiles>  (293) 
C[C@]12C/C(=C/O)C(=O)C[C@@H]1CC[C@@H]1[C@@H]2CC[C@@]2(C)[C@H]1CC[C@]2(C)O

$$$$

     RDKit          3D

 25 26  0  0  0  0  0  0  0  0999 V2000
    7.5570    0.5168   -0.2794 C   0  0  0  0  0  0  0  0  0  0  0  0
    7.1209    0.5019    0.7239 C   0  0  0  0  0  0  0  0  0  0  0  0
    5.6619    0.9307    0.7777 C   0  0  0  0  0  0  0  0  0  0  0  0
    5.3479    1.1362    2.2571 C   0  0  0  0  0  0  0  0  0  0  0  0
    4.0844    0.3150    2.5025 C   0  0  0  0  0  0  0  0  0  0  0  0
    3.1967    0.7079    1.4647 O   0  0  0  0  0  0  0  0  0  0  0  0
    2.8801   -0.1790    0.4666 C   0  0  0  0  0  0  0  0  0  0  0  0
    2.8287   -1.4057    0.6985 O   0  0  0  0  0  0  0  0  0  0  0  0
    2.2347    0.0831   -0.7563 N   0  0  0  0  0  0  0  0  0  0  0  0
    0.8659   -0.1166   -0.9606 C   0  0  0  0  0  0  0  0  0  0  0  0
    0.1131    0.9865   -1.2091 N   0  0  0  0  0  0  0  0  0  0  0  0
   -1.2223    0.9795   -0.9619 C   0  0  0  0  0  0  0  0  0  0  0  0
   -1.6762    2.0544   -0.4634 O   0  0  0  0  0  0  0  0  0  0  0  0
   -1.9362   -0.1785   -0.9939 N   0  0  0  0  0  0  0  0  0  0  0  0
   -3.1511   -0.0250    0.0336 C   0  0  2  0  0  0  0  0  0  0  0  0
   -3.5903   -1.4946   -0.1138 O   0  0  0  0  0  0  0  0  0  0  0  0
   -4.6022   -0.9319    0.8779 C   0  0  2  0  0  0  0  0  0  0  0  0
   -5.4612   -2.3479    0.9248 C   0  0  0  0  0  0  0  0  0  0  0  0
   -5.5861   -0.3132   -0.3983 C   0  0  1  0  0  0  0  0  0  0  0  0
   -5.9247    0.8925    0.4461 O   0  0  0  0  0  0  0  0  0  0  0  0
   -4.2520    0.3620   -1.2478 C   0  0  1  0  0  0  0  0  0  0  0  0
   -4.4365    1.7969   -0.8179 O   0  0  0  0  0  0  0  0  0  0  0  0
   -1.1703   -1.2764   -0.7829 C   0  0  0  0  0  0  0  0  0  0  0  0
    0.1942   -1.3009   -0.9872 C   0  0  0  0  0  0  0  0  0  0  0  0
    0.9237   -2.4038   -1.2010 F   0  0  0  0  0  0  0  0  0  0  0  0
  1  2  1  0
  2  3  1  0
  3  4  1  0
  4  5  1  0
  5  6  1  0
  6  7  1  0
  7  8  2  0
  7  9  1  0
  9 10  1  0
 10 11  2  0
 11 12  1  0
 12 13  2  0
 12 14  1  0
 15 14  1  6
 15 16  1  0
 16 17  1  0
 17 18  1  6
 17 19  1  0
 19 20  1  1
 19 21  1  0
 21 22  1  1
 14 23  1  0
 23 24  2  0
 24 25  1  0
 24 10  1  0
 21 15  1  0
M  END
>  <zinc_id>  (294) 
ZINC000003806413

>  <smiles>  (294) 
CCCCCOC(=O)Nc1nc(=O)n([C@@H]2O[C@H](C)[C@@H](O)[C@H]2O)cc1F

$$$$

     RDKit          3D

 35 38  0  0  0  0  0  0  0  0999 V2000
   -2.9529    6.3966   -0.0443 C   0  0  0  0  0  0  0  0  0  0  0  0
   -2.5443    5.4621   -0.5173 C   0  0  0  0  0  0  0  0  0  0  0  0
   -2.4146    4.3079    0.2693 O   0  0  0  0  0  0  0  0  0  0  0  0
   -2.5591    3.0392   -0.2540 C   0  0  0  0  0  0  0  0  0  0  0  0
   -3.0562    2.8870   -1.3896 O   0  0  0  0  0  0  0  0  0  0  0  0
   -2.3848    1.8943    0.4918 O   0  0  0  0  0  0  0  0  0  0  0  0
   -1.9059    0.6874   -0.1059 C   0  0  1  0  0  0  0  0  0  0  0  0
   -2.7159   -0.3931    0.4619 C   0  0  0  0  0  0  0  0  0  0  0  0
   -3.9170   -0.1735    0.6202 O   0  0  0  0  0  0  0  0  0  0  0  0
   -2.2798   -1.7801    0.7158 C   0  0  0  0  0  0  0  0  0  0  0  0
   -3.0463   -2.6145   -0.1286 O   0  0  0  0  0  0  0  0  0  0  0  0
   -4.3521   -3.0052    0.1533 C   0  0  0  0  0  0  0  0  0  0  0  0
   -4.6553   -3.1098    1.3589 O   0  0  0  0  0  0  0  0  0  0  0  0
   -5.2439   -3.3864   -0.9712 C   0  0  0  0  0  0  0  0  0  0  0  0
   -5.0945   -4.8898   -1.1599 C   0  0  0  0  0  0  0  0  0  0  0  0
   -1.9218    0.7543   -1.6102 C   0  0  0  0  0  0  0  0  0  0  0  0
   -0.4936    0.5051   -2.0894 C   0  0  0  0  0  0  0  0  0  0  0  0
   -0.0246   -0.4621   -0.8790 C   0  0  1  0  0  0  0  0  0  0  0  0
    1.5719    0.0879   -0.8993 C   0  0  2  0  0  0  0  0  0  0  0  0
    1.9690   -1.0094   -1.9972 C   0  0  0  0  0  0  0  0  0  0  0  0
    3.2995   -1.5562   -1.8035 C   0  0  0  0  0  0  0  0  0  0  0  0
    4.1567   -0.9834   -0.7768 C   0  0  0  0  0  0  0  0  0  0  0  0
    5.4625   -1.0237   -0.7907 C   0  0  0  0  0  0  0  0  0  0  0  0
    6.2429   -0.8912    0.4500 C   0  0  0  0  0  0  0  0  0  0  0  0
    7.4653   -0.6387    0.4608 O   0  0  0  0  0  0  0  0  0  0  0  0
    5.4450   -0.9426    1.6874 C   0  0  0  0  0  0  0  0  0  0  0  0
    4.1224   -1.0181    1.6349 C   0  0  0  0  0  0  0  0  0  0  0  0
    3.5013   -0.4526    0.4258 C   0  0  1  0  0  0  0  0  0  0  0  0
    3.6295    1.0211    0.4139 C   0  0  0  0  0  0  0  0  0  0  0  0
    1.9594   -0.8904    0.4016 C   0  0  1  0  0  0  0  0  0  0  0  0
    1.5574    0.2710    1.5867 C   0  0  2  0  0  0  0  0  0  0  0  0
    1.6307   -0.7900    2.6706 O   0  0  0  0  0  0  0  0  0  0  0  0
   -0.0631    0.0589    1.4455 C   0  0  0  0  0  0  0  0  0  0  0  0
   -0.4580    0.6630    0.1956 C   0  0  2  0  0  0  0  0  0  0  0  0
    0.0701    1.9749   -0.2281 C   0  0  0  0  0  0  0  0  0  0  0  0
  1  2  1  0
  2  3  1  0
  3  4  1  0
  4  5  2  0
  4  6  1  0
  7  6  1  1
  7  8  1  0
  8  9  2  0
  8 10  1  0
 10 11  1  0
 11 12  1  0
 12 13  2  0
 12 14  1  0
 14 15  1  0
  7 16  1  0
 16 17  1  0
 18 17  1  6
 18 19  1  0
 19 20  1  6
 20 21  1  0
 21 22  1  0
 22 23  2  0
 23 24  1  0
 24 25  2  0
 24 26  1  0
 26 27  2  0
 27 28  1  0
 28 29  1  1
 30 28  1  6
 30 31  1  0
 31 32  1  1
 31 33  1  0
 33 34  1  0
 34 35  1  6
 34  7  1  0
 34 18  1  0
 30 19  1  0
 28 22  1  0
M  END
>  <zinc_id>  (295) 
ZINC000000601253

>  <smiles>  (295) 
CCOC(=O)O[C@@]1(C(=O)COC(=O)CC)CC[C@H]2[C@@H]3CCC4=CC(=O)C=C[C@]4(C)[C@H]3[C@H](O)C[C@@]21C

$$$$

     RDKit          3D

 67 72  0  0  0  0  0  0  0  0999 V2000
   -9.1485   -0.0305    4.9123 C   0  0  0  0  0  0  0  0  0  0  0  0
   -9.0085   -0.6892    4.4291 O   0  0  0  0  0  0  0  0  0  0  0  0
   -8.4285   -1.2744    3.3017 C   0  0  0  0  0  0  0  0  0  0  0  0
   -7.1302   -1.7461    3.3136 C   0  0  0  0  0  0  0  0  0  0  0  0
   -6.3972   -1.8355    2.1402 C   0  0  0  0  0  0  0  0  0  0  0  0
   -6.9934   -1.3961    0.9629 C   0  0  0  0  0  0  0  0  0  0  0  0
   -6.1907   -0.9124   -0.1842 C   0  0  0  0  0  0  0  0  0  0  0  0
   -6.4269    0.7494   -0.1073 C   0  0  2  0  0  0  0  0  0  0  0  0
   -7.8817    0.6398   -0.8490 C   0  0  0  0  0  0  0  0  0  0  0  0
   -8.7572    1.6430   -0.5269 C   0  0  0  0  0  0  0  0  0  0  0  0
  -10.0620    1.5126   -0.9903 C   0  0  0  0  0  0  0  0  0  0  0  0
  -11.1319    2.0119   -0.2391 O   0  0  0  0  0  0  0  0  0  0  0  0
  -11.2834    1.7311    1.1459 C   0  0  0  0  0  0  0  0  0  0  0  0
  -10.2671    0.6791   -2.0845 C   0  0  0  0  0  0  0  0  0  0  0  0
  -11.5856    0.2510   -2.2822 O   0  0  0  0  0  0  0  0  0  0  0  0
  -11.9978   -0.8221   -1.4386 C   0  0  0  0  0  0  0  0  0  0  0  0
   -9.1875   -0.0064   -2.6277 C   0  0  0  0  0  0  0  0  0  0  0  0
   -7.9440   -0.0407   -2.0028 C   0  0  0  0  0  0  0  0  0  0  0  0
   -6.8380   -0.5559   -2.8214 C   0  0  0  0  0  0  0  0  0  0  0  0
   -5.5544   -0.0914   -2.2386 C   0  0  0  0  0  0  0  0  0  0  0  0
   -5.6698    1.0600   -1.4858 N   0  0  1  0  0  0  0  0  0  0  0  0
   -6.3916    2.1712   -2.0567 C   0  0  0  0  0  0  0  0  0  0  0  0
   -4.3848    1.6028   -1.0554 C   0  0  0  0  0  0  0  0  0  0  0  0
   -3.8064    0.8484    0.1045 C   0  0  0  0  0  0  0  0  0  0  0  0
   -2.3379    0.7115   -0.1284 C   0  0  0  0  0  0  0  0  0  0  0  0
   -1.4872    0.7979    0.7891 O   0  0  0  0  0  0  0  0  0  0  0  0
   -1.8701    0.5163   -1.4217 O   0  0  0  0  0  0  0  0  0  0  0  0
   -0.5084    0.7304   -1.7869 C   0  0  0  0  0  0  0  0  0  0  0  0
    0.0132   -0.6393   -2.2062 C   0  0  0  0  0  0  0  0  0  0  0  0
   -0.4839   -1.6130   -1.1440 C   0  0  0  0  0  0  0  0  0  0  0  0
    0.6820   -1.9618   -0.2568 C   0  0  0  0  0  0  0  0  0  0  0  0
    1.9727   -1.7227   -0.9989 C   0  0  0  0  0  0  0  0  0  0  0  0
    2.3941   -0.3645   -0.8952 O   0  0  0  0  0  0  0  0  0  0  0  0
    3.4857   -0.0833   -0.0628 C   0  0  0  0  0  0  0  0  0  0  0  0
    3.4789   -0.7691    1.0080 O   0  0  0  0  0  0  0  0  0  0  0  0
    3.8191    1.3337    0.1239 C   0  0  0  0  0  0  0  0  0  0  0  0
    4.8865    1.9021   -0.6896 C   0  0  0  0  0  0  0  0  0  0  0  0
    5.6954    1.0589   -1.4871 N   0  0  2  0  0  0  0  0  0  0  0  0
    6.7774    1.8297   -2.0149 C   0  0  0  0  0  0  0  0  0  0  0  0
    4.9674    0.2889   -2.4352 C   0  0  0  0  0  0  0  0  0  0  0  0
    5.7470   -0.7198   -3.1999 C   0  0  0  0  0  0  0  0  0  0  0  0
    7.1587   -0.7625   -2.7733 C   0  0  0  0  0  0  0  0  0  0  0  0
    8.2108   -0.9157   -3.6750 C   0  0  0  0  0  0  0  0  0  0  0  0
    9.5322   -0.9655   -3.2425 C   0  0  0  0  0  0  0  0  0  0  0  0
   10.5929   -0.6952   -4.1132 O   0  0  0  0  0  0  0  0  0  0  0  0
   10.2723    0.0183   -5.3054 C   0  0  0  0  0  0  0  0  0  0  0  0
    9.7170   -1.1475   -1.8763 C   0  0  0  0  0  0  0  0  0  0  0  0
   11.0262   -1.2561   -1.3954 O   0  0  0  0  0  0  0  0  0  0  0  0
   11.4505   -0.4304   -0.3135 C   0  0  0  0  0  0  0  0  0  0  0  0
    8.6417   -0.9965   -1.0020 C   0  0  0  0  0  0  0  0  0  0  0  0
    7.5689   -0.3382   -1.5385 C   0  0  0  0  0  0  0  0  0  0  0  0
    6.3622    0.0000   -0.4844 C   0  0  1  0  0  0  0  0  0  0  0  0
    7.2798    1.1934    0.2550 C   0  0  0  0  0  0  0  0  0  0  0  0
    7.4609    0.6694    1.6485 C   0  0  0  0  0  0  0  0  0  0  0  0
    6.8012    1.3950    2.6361 C   0  0  0  0  0  0  0  0  0  0  0  0
    7.3103    1.4825    3.9268 C   0  0  0  0  0  0  0  0  0  0  0  0
    8.4433    0.7661    4.2883 C   0  0  0  0  0  0  0  0  0  0  0  0
    8.7666    0.4807    5.6100 O   0  0  0  0  0  0  0  0  0  0  0  0
    7.9525   -0.4094    6.3708 C   0  0  0  0  0  0  0  0  0  0  0  0
    9.1288    0.0709    3.3104 C   0  0  0  0  0  0  0  0  0  0  0  0
   10.1613   -0.8030    3.5790 O   0  0  0  0  0  0  0  0  0  0  0  0
   11.1948   -0.4590    4.4954 C   0  0  0  0  0  0  0  0  0  0  0  0
    8.7449    0.2753    2.0122 C   0  0  0  0  0  0  0  0  0  0  0  0
   -8.3825   -1.4312    0.9573 C   0  0  0  0  0  0  0  0  0  0  0  0
   -9.1181   -1.2049    2.1079 C   0  0  0  0  0  0  0  0  0  0  0  0
  -10.4002   -0.6613    2.0752 O   0  0  0  0  0  0  0  0  0  0  0  0
  -10.6421    0.7307    1.9339 C   0  0  0  0  0  0  0  0  0  0  0  0
  1  2  1  0
  2  3  1  0
  3  4  2  0
  4  5  1  0
  5  6  2  0
  6  7  1  0
  8  7  1  6
  8  9  1  0
  9 10  2  0
 10 11  1  0
 11 12  1  0
 12 13  1  0
 11 14  2  0
 14 15  1  0
 15 16  1  0
 14 17  1  0
 17 18  2  0
 18 19  1  0
 19 20  1  0
 20 21  1  0
 21 22  1  6
 21 23  1  0
 23 24  1  0
 24 25  1  0
 25 26  2  0
 25 27  1  0
 27 28  1  0
 28 29  1  0
 29 30  1  0
 30 31  1  0
 31 32  1  0
 32 33  1  0
 33 34  1  0
 34 35  2  0
 34 36  1  0
 36 37  1  0
 38 37  1  1
 38 39  1  0
 38 40  1  0
 40 41  1  0
 41 42  1  0
 42 43  2  0
 43 44  1  0
 44 45  1  0
 45 46  1  0
 44 47  2  0
 47 48  1  0
 48 49  1  0
 47 50  1  0
 50 51  2  0
 51 52  1  0
 52 53  1  1
 53 54  1  0
 54 55  2  0
 55 56  1  0
 56 57  2  0
 57 58  1  0
 58 59  1  0
 57 60  1  0
 60 61  1  0
 61 62  1  0
 60 63  2  0
  6 64  1  0
 64 65  2  0
 65 66  1  0
 66 67  1  0
 65  3  1  0
 21  8  1  0
 52 38  1  0
 63 54  1  0
 18  9  1  0
 51 42  1  0
M  CHG  2  21   1  38   1
M  END
>  <zinc_id>  (296) 
ZINC000238809663

>  <smiles>  (296) 
COc1ccc(C[C@@H]2c3cc(OC)c(OC)cc3CC[N@@+]2(C)CCC(=O)OCCCCCOC(=O)CC[N@@+]2(C)CCc3cc(OC)c(OC)cc3[C@H]2Cc2ccc(OC)c(OC)c2)cc1OC

$$$$

     RDKit          3D

 13 15  0  0  0  0  0  0  0  0999 V2000
    3.2628    1.1642    0.4716 C   0  0  0  0  0  0  0  0  0  0  0  0
    2.0188    0.2250    0.8527 C   0  0  1  0  0  0  0  0  0  0  0  0
    1.1767    0.6861   -0.2689 O   0  0  0  0  0  0  0  0  0  0  0  0
    0.2545   -0.3404   -0.3453 C   0  0  1  0  0  0  0  0  0  0  0  0
    0.9533   -1.5750   -0.8455 C   0  0  0  0  0  0  0  0  0  0  0  0
    2.6376   -1.2635   -0.2003 S   0  0  0  0  0  0  0  0  0  0  0  0
   -0.3734   -0.4892    1.0046 C   0  0  0  0  0  0  0  0  0  0  0  0
   -1.6366    0.2437    1.0153 N   0  0  0  0  0  0  0  0  0  0  0  0
   -2.5839   -0.5585    0.2445 C   0  0  0  0  0  0  0  0  0  0  0  0
   -1.9667   -0.9903   -1.0809 C   0  0  0  0  0  0  0  0  0  0  0  0
   -0.8222   -0.0136   -1.3347 C   0  0  0  0  0  0  0  0  0  0  0  0
   -1.4009    1.3672   -1.1110 C   0  0  0  0  0  0  0  0  0  0  0  0
   -1.5200    1.5443    0.3934 C   0  0  0  0  0  0  0  0  0  0  0  0
  2  1  1  6
  2  3  1  0
  4  3  1  1
  4  5  1  0
  5  6  1  0
  4  7  1  0
  7  8  1  0
  8  9  1  0
  9 10  1  0
 10 11  1  0
 11 12  1  0
 12 13  1  0
  6  2  1  0
 13  8  1  0
 11  4  1  0
M  END
>  <zinc_id>  (297) 
ZINC000000010164

>  <smiles>  (297) 
C[C@H]1O[C@@]2(CS1)CN1CCC2CC1

$$$$

     RDKit          3D

 22 22  0  0  0  0  0  0  0  0999 V2000
   -0.5173   -0.7856    1.8679 C   0  0  0  0  0  0  0  0  0  0  0  0
    0.1630   -0.8052    0.5615 C   0  0  0  0  0  0  0  0  0  0  0  0
   -0.2175    0.0602   -0.5615 C   0  0  0  0  0  0  0  0  0  0  0  0
   -1.4651   -0.1212   -0.9974 C   0  0  0  0  0  0  0  0  0  0  0  0
   -2.5083    0.0236    0.0279 C   0  0  0  0  0  0  0  0  0  0  0  0
   -3.4395   -0.9139    0.2207 C   0  0  0  0  0  0  0  0  0  0  0  0
   -3.3290   -2.2235   -0.4946 C   0  0  0  0  0  0  0  0  0  0  0  0
   -4.8271   -0.4010    0.4571 C   0  0  0  0  0  0  0  0  0  0  0  0
   -5.1414    0.5796   -0.6618 C   0  0  0  0  0  0  0  0  0  0  0  0
   -4.0811    1.6325   -0.8207 C   0  0  0  0  0  0  0  0  0  0  0  0
   -3.0147    1.4182    0.2380 C   0  0  0  0  0  0  0  0  0  0  0  0
   -1.9187    2.4346    0.1825 C   0  0  0  0  0  0  0  0  0  0  0  0
   -3.7251    1.4175    1.5757 C   0  0  0  0  0  0  0  0  0  0  0  0
    1.1542   -1.6681    0.3364 C   0  0  0  0  0  0  0  0  0  0  0  0
    1.8869   -1.6184   -0.9348 C   0  0  0  0  0  0  0  0  0  0  0  0
    2.9168   -0.7719   -0.9715 C   0  0  0  0  0  0  0  0  0  0  0  0
    3.8830   -0.9098    0.1232 C   0  0  0  0  0  0  0  0  0  0  0  0
    3.9919   -2.1571    0.9311 C   0  0  0  0  0  0  0  0  0  0  0  0
    4.9702   -0.1552    0.0588 C   0  0  0  0  0  0  0  0  0  0  0  0
    4.8808    1.2162   -0.4586 C   0  0  0  0  0  0  0  0  0  0  0  0
    5.7802    1.5278   -1.2971 O   0  0  0  0  0  0  0  0  0  0  0  0
    4.5579    2.2206    0.4580 O   0  0  0  0  0  0  0  0  0  0  0  0
  1  2  1  0
  2  3  1  0
  3  4  2  0
  4  5  1  0
  5  6  2  0
  6  7  1  0
  6  8  1  0
  8  9  1  0
  9 10  1  0
 10 11  1  0
 11 12  1  0
 11 13  1  0
  2 14  2  0
 14 15  1  0
 15 16  2  0
 16 17  1  0
 17 18  1  0
 17 19  2  0
 19 20  1  0
 20 21  2  0
 20 22  1  0
 11  5  1  0
M  END
>  <zinc_id>  (298) 
ZINC000012484958

>  <smiles>  (298) 
CC1=C(/C=C\C(C)=C/C=C\C(C)=C/C(=O)O)C(C)(C)CCC1

$$$$

     RDKit          3D

 28 29  0  0  0  0  0  0  0  0999 V2000
   -1.3241    4.8139   -0.3120 C   0  0  0  0  0  0  0  0  0  0  0  0
   -1.0818    3.6220   -1.0014 O   0  0  0  0  0  0  0  0  0  0  0  0
   -0.5710    2.5450   -0.2773 C   0  0  0  0  0  0  0  0  0  0  0  0
    0.4192    2.8117    0.4686 O   0  0  0  0  0  0  0  0  0  0  0  0
   -0.6221    1.2248   -0.9221 C   0  0  0  0  0  0  0  0  0  0  0  0
   -0.1339    1.1011   -2.0801 C   0  0  0  0  0  0  0  0  0  0  0  0
   -0.3434    2.2309   -3.0391 C   0  0  0  0  0  0  0  0  0  0  0  0
    0.1014   -0.1753   -2.6126 N   0  0  0  0  0  0  0  0  0  0  0  0
    0.4293   -1.2284   -1.6969 C   0  0  0  0  0  0  0  0  0  0  0  0
    1.3297   -2.3043   -2.2311 C   0  0  0  0  0  0  0  0  0  0  0  0
    0.6683   -0.7812   -0.5187 C   0  0  0  0  0  0  0  0  0  0  0  0
    1.7891   -1.1616    0.3493 C   0  0  0  0  0  0  0  0  0  0  0  0
    2.6099   -2.0163   -0.0179 O   0  0  0  0  0  0  0  0  0  0  0  0
    2.1698   -0.3318    1.3752 O   0  0  0  0  0  0  0  0  0  0  0  0
    3.4426   -0.1529    1.8915 C   0  0  0  0  0  0  0  0  0  0  0  0
    4.5686   -0.2595    0.9124 C   0  0  0  0  0  0  0  0  0  0  0  0
    5.5260   -1.3055    1.4758 C   0  0  0  0  0  0  0  0  0  0  0  0
    5.3058    1.0662    0.7517 C   0  0  0  0  0  0  0  0  0  0  0  0
   -0.4376    0.1193    0.2302 C   0  0  2  0  0  0  0  0  0  0  0  0
   -1.6914   -0.8100   -0.1844 C   0  0  0  0  0  0  0  0  0  0  0  0
   -2.6008   -0.3640   -1.1039 C   0  0  0  0  0  0  0  0  0  0  0  0
   -3.7372   -1.1113   -1.3017 C   0  0  0  0  0  0  0  0  0  0  0  0
   -4.1256   -2.0428   -0.3465 C   0  0  0  0  0  0  0  0  0  0  0  0
   -3.4927   -1.9327    0.8857 C   0  0  0  0  0  0  0  0  0  0  0  0
   -2.2856   -1.2506    0.9977 C   0  0  0  0  0  0  0  0  0  0  0  0
   -1.9235   -0.8414    2.3015 N   0  0  0  0  0  0  0  0  0  0  0  0
   -2.0157    0.3414    2.7183 O   0  0  0  0  0  0  0  0  0  0  0  0
   -1.9733   -1.8066    3.2878 O   0  0  0  0  0  0  0  0  0  0  0  0
  1  2  1  0
  2  3  1  0
  3  4  2  0
  3  5  1  0
  5  6  2  0
  6  7  1  0
  6  8  1  0
  8  9  1  0
  9 10  1  0
  9 11  2  0
 11 12  1  0
 12 13  2  0
 12 14  1  0
 14 15  1  0
 15 16  1  0
 16 17  1  0
 16 18  1  0
 11 19  1  0
 19 20  1  6
 20 21  2  0
 21 22  1  0
 22 23  2  0
 23 24  1  0
 24 25  2  0
 25 26  1  0
 26 27  2  0
 26 28  1  0
 19  5  1  0
 25 20  1  0
M  CHG  2  26   1  28  -1
M  END
>  <zinc_id>  (299) 
ZINC000019632706

>  <smiles>  (299) 
COC(=O)C1=C(C)NC(C)=C(C(=O)OCC(C)C)[C@@H]1c1ccccc1[N+](=O)[O-]

$$$$

     RDKit          3D

 28 29  0  0  0  0  0  0  0  0999 V2000
   -1.8294   -2.3764    3.5084 C   0  0  0  0  0  0  0  0  0  0  0  0
   -1.6753   -1.7087    2.6834 O   0  0  0  0  0  0  0  0  0  0  0  0
   -2.4723   -1.5058    1.5533 C   0  0  0  0  0  0  0  0  0  0  0  0
   -3.5962   -2.0190    1.5668 O   0  0  0  0  0  0  0  0  0  0  0  0
   -1.9176   -0.9678    0.2999 C   0  0  0  0  0  0  0  0  0  0  0  0
   -2.0341   -1.5169   -0.8602 C   0  0  0  0  0  0  0  0  0  0  0  0
   -3.2585   -2.3593   -1.0684 C   0  0  0  0  0  0  0  0  0  0  0  0
   -0.8041   -1.9503   -1.4521 N   0  0  0  0  0  0  0  0  0  0  0  0
    0.3870   -1.6545   -0.7722 C   0  0  0  0  0  0  0  0  0  0  0  0
    1.5764   -2.5495   -0.9558 C   0  0  0  0  0  0  0  0  0  0  0  0
    0.4564   -0.8527    0.2277 C   0  0  0  0  0  0  0  0  0  0  0  0
    1.7259   -0.2901    0.7096 C   0  0  0  0  0  0  0  0  0  0  0  0
    1.8929    0.9100    1.0074 O   0  0  0  0  0  0  0  0  0  0  0  0
    2.7869   -1.1467    0.9215 O   0  0  0  0  0  0  0  0  0  0  0  0
    4.0529   -0.6142    1.2223 C   0  0  0  0  0  0  0  0  0  0  0  0
    4.4814    0.2591    0.0769 C   0  0  0  0  0  0  0  0  0  0  0  0
    5.1293   -0.6159   -0.9779 C   0  0  0  0  0  0  0  0  0  0  0  0
    5.4856    1.2815    0.5954 C   0  0  0  0  0  0  0  0  0  0  0  0
   -0.7741    0.1570    0.5209 C   0  0  1  0  0  0  0  0  0  0  0  0
   -0.8603    0.7956   -0.9744 C   0  0  0  0  0  0  0  0  0  0  0  0
    0.3656    0.8899   -1.6412 C   0  0  0  0  0  0  0  0  0  0  0  0
    0.2970    1.5321   -2.8716 C   0  0  0  0  0  0  0  0  0  0  0  0
   -0.2587    2.8038   -2.8223 C   0  0  0  0  0  0  0  0  0  0  0  0
   -0.9558    3.1263   -1.6639 C   0  0  0  0  0  0  0  0  0  0  0  0
   -1.3858    2.0848   -0.8424 C   0  0  0  0  0  0  0  0  0  0  0  0
   -2.1642    2.4873    0.2879 N   0  0  0  0  0  0  0  0  0  0  0  0
   -1.8895    2.0720    1.4433 O   0  0  0  0  0  0  0  0  0  0  0  0
   -2.7613    3.7282    0.2777 O   0  0  0  0  0  0  0  0  0  0  0  0
  1  2  1  0
  2  3  1  0
  3  4  2  0
  3  5  1  0
  5  6  2  0
  6  7  1  0
  6  8  1  0
  8  9  1  0
  9 10  1  0
  9 11  2  0
 11 12  1  0
 12 13  2  0
 12 14  1  0
 14 15  1  0
 15 16  1  0
 16 17  1  0
 16 18  1  0
 11 19  1  0
 19 20  1  6
 20 21  2  0
 21 22  1  0
 22 23  2  0
 23 24  1  0
 24 25  2  0
 25 26  1  0
 26 27  2  0
 26 28  1  0
 19  5  1  0
 25 20  1  0
M  CHG  2  26   1  28  -1
M  END
>  <zinc_id>  (300) 
ZINC000000591993

>  <smiles>  (300) 
COC(=O)C1=C(C)NC(C)=C(C(=O)OCC(C)C)[C@H]1c1ccccc1[N+](=O)[O-]

$$$$

     RDKit          3D

 41 44  0  0  0  0  0  0  0  0999 V2000
    0.7410    1.9258    0.8772 C   0  0  0  0  0  0  0  0  0  0  0  0
    0.5424    1.5475    0.9641 C   0  0  0  0  0  0  0  0  0  0  0  0
   -0.0619    1.1724    2.3092 C   0  0  0  0  0  0  0  0  0  0  0  0
    0.2963    0.4853   -0.0588 C   0  0  0  0  0  0  0  0  0  0  0  0
   -0.7454    0.5383   -0.9781 C   0  0  0  0  0  0  0  0  0  0  0  0
   -1.6641    1.6736   -1.1375 C   0  0  0  0  0  0  0  0  0  0  0  0
   -1.2098    2.6869   -1.7218 O   0  0  0  0  0  0  0  0  0  0  0  0
   -2.5988    1.9166   -0.0849 N   0  0  0  0  0  0  0  0  0  0  0  0
   -3.0047    3.2165    0.2990 C   0  0  0  0  0  0  0  0  0  0  0  0
   -3.2585    3.4922    1.6360 C   0  0  0  0  0  0  0  0  0  0  0  0
   -3.6809    4.7415    2.0627 C   0  0  0  0  0  0  0  0  0  0  0  0
   -3.6997    5.7489    1.1347 C   0  0  0  0  0  0  0  0  0  0  0  0
   -3.2438    5.5136   -0.1522 C   0  0  0  0  0  0  0  0  0  0  0  0
   -2.7907    4.2762   -0.5423 C   0  0  0  0  0  0  0  0  0  0  0  0
   -1.0303   -0.7730   -1.3400 C   0  0  0  0  0  0  0  0  0  0  0  0
   -2.3146   -1.2262   -1.8902 C   0  0  0  0  0  0  0  0  0  0  0  0
   -3.4753   -1.0349   -1.1614 C   0  0  0  0  0  0  0  0  0  0  0  0
   -4.7178   -1.3874   -1.6028 C   0  0  0  0  0  0  0  0  0  0  0  0
   -4.8326   -1.7837   -2.9161 C   0  0  0  0  0  0  0  0  0  0  0  0
   -3.6760   -2.1553   -3.5893 C   0  0  0  0  0  0  0  0  0  0  0  0
   -2.4719   -1.6486   -3.1868 C   0  0  0  0  0  0  0  0  0  0  0  0
   -0.2013   -1.6118   -0.6033 C   0  0  0  0  0  0  0  0  0  0  0  0
   -0.4680   -2.9991   -0.1850 C   0  0  0  0  0  0  0  0  0  0  0  0
   -0.0701   -3.4689    1.0639 C   0  0  0  0  0  0  0  0  0  0  0  0
   -0.9558   -4.1258    1.9119 C   0  0  0  0  0  0  0  0  0  0  0  0
   -2.2091   -4.5069    1.4459 C   0  0  0  0  0  0  0  0  0  0  0  0
   -3.3113   -4.4300    2.2381 F   0  0  0  0  0  0  0  0  0  0  0  0
   -2.3274   -4.5377    0.0601 C   0  0  0  0  0  0  0  0  0  0  0  0
   -1.5465   -3.6926   -0.7230 C   0  0  0  0  0  0  0  0  0  0  0  0
    0.7168   -0.8036   -0.0407 N   0  0  0  0  0  0  0  0  0  0  0  0
    1.6508   -1.2634    0.9833 C   0  0  0  0  0  0  0  0  0  0  0  0
    3.0566   -1.4328    0.4434 C   0  0  0  0  0  0  0  0  0  0  0  0
    3.7695   -0.1065    1.1915 C   0  0  1  0  0  0  0  0  0  0  0  0
    3.9738   -0.9087    2.4983 O   0  0  0  0  0  0  0  0  0  0  0  0
    5.2899   -0.5469    0.6218 C   0  0  0  0  0  0  0  0  0  0  0  0
    5.0877    0.3683   -0.7765 C   0  0  1  0  0  0  0  0  0  0  0  0
    5.0626    1.6849    0.0368 O   0  0  0  0  0  0  0  0  0  0  0  0
    6.7444    0.4855   -1.0360 C   0  0  0  0  0  0  0  0  0  0  0  0
    7.3096    0.8512    0.2663 C   0  0  0  0  0  0  0  0  0  0  0  0
    7.7845   -0.0461    1.0037 O   0  0  0  0  0  0  0  0  0  0  0  0
    7.5402    2.1643    0.6788 O   0  0  0  0  0  0  0  0  0  0  0  0
  1  2  1  0
  2  3  1  0
  2  4  1  0
  4  5  2  0
  5  6  1  0
  6  7  2  0
  6  8  1  0
  8  9  1  0
  9 10  2  0
 10 11  1  0
 11 12  2  0
 12 13  1  0
 13 14  2  0
  5 15  1  0
 15 16  1  0
 16 17  2  0
 17 18  1  0
 18 19  2  0
 19 20  1  0
 20 21  2  0
 15 22  2  0
 22 23  1  0
 23 24  2  0
 24 25  1  0
 25 26  2  0
 26 27  1  0
 26 28  1  0
 28 29  2  0
 22 30  1  0
 30 31  1  0
 31 32  1  0
 33 32  1  6
 33 34  1  0
 33 35  1  0
 36 35  1  1
 36 37  1  0
 36 38  1  0
 38 39  1  0
 39 40  2  0
 39 41  1  0
 30  4  1  0
 14  9  1  0
 21 16  1  0
 29 23  1  0
M  END
>  <zinc_id>  (301) 
ZINC000003920719

>  <smiles>  (301) 
CC(C)c1c(C(=O)Nc2ccccc2)c(-c2ccccc2)c(-c2ccc(F)cc2)n1CC[C@@H](O)C[C@@H](O)CC(=O)O

$$$$

     RDKit          3D

 31 34  0  0  0  0  0  0  0  0999 V2000
   -5.2001    1.3036   -1.4565 C   0  0  0  0  0  0  0  0  0  0  0  0
   -6.3164    0.3056   -1.5694 C   0  0  0  0  0  0  0  0  0  0  0  0
   -5.7460   -1.0353   -1.9810 C   0  0  0  0  0  0  0  0  0  0  0  0
   -5.7876   -2.0693   -0.9058 C   0  0  0  0  0  0  0  0  0  0  0  0
   -4.4343   -2.7095   -0.6371 C   0  0  0  0  0  0  0  0  0  0  0  0
   -3.6459   -1.8600    0.2621 C   0  0  0  0  0  0  0  0  0  0  0  0
   -4.1847   -1.4364    1.3181 O   0  0  0  0  0  0  0  0  0  0  0  0
   -2.2806   -1.5787    0.1486 O   0  0  0  0  0  0  0  0  0  0  0  0
   -1.9194   -0.2373    0.2120 C   0  0  2  0  0  0  0  0  0  0  0  0
   -2.8374    0.5784    1.0715 C   0  0  0  0  0  0  0  0  0  0  0  0
   -2.4394    0.8359    2.4922 C   0  0  0  0  0  0  0  0  0  0  0  0
   -3.5511    1.4532    0.5843 O   0  0  0  0  0  0  0  0  0  0  0  0
   -1.9849    0.3186   -1.2104 C   0  0  0  0  0  0  0  0  0  0  0  0
   -0.5825    0.3357   -1.7453 C   0  0  0  0  0  0  0  0  0  0  0  0
    0.1825   -0.6469   -0.6803 C   0  0  1  0  0  0  0  0  0  0  0  0
    1.5431    0.3752   -0.5885 C   0  0  2  0  0  0  0  0  0  0  0  0
    2.2618   -0.3824   -1.8139 C   0  0  0  0  0  0  0  0  0  0  0  0
    3.6569    0.1505   -1.9394 C   0  0  0  0  0  0  0  0  0  0  0  0
    4.3419    0.0688   -0.6211 C   0  0  0  0  0  0  0  0  0  0  0  0
    5.6290    0.4189   -0.5878 C   0  0  0  0  0  0  0  0  0  0  0  0
    6.2275    0.9672    0.6274 C   0  0  0  0  0  0  0  0  0  0  0  0
    7.2801    1.6497    0.6215 O   0  0  0  0  0  0  0  0  0  0  0  0
    5.6068    0.6422    1.9515 C   0  0  0  0  0  0  0  0  0  0  0  0
    4.4430   -0.2884    1.7665 C   0  0  0  0  0  0  0  0  0  0  0  0
    3.6150    0.2811    0.6477 C   0  0  1  0  0  0  0  0  0  0  0  0
    3.2553    1.6716    0.9421 C   0  0  0  0  0  0  0  0  0  0  0  0
    2.2683   -0.6429    0.5692 C   0  0  1  0  0  0  0  0  0  0  0  0
    1.5245    0.1386    1.8079 C   0  0  0  0  0  0  0  0  0  0  0  0
    0.0858   -0.3286    1.7895 C   0  0  0  0  0  0  0  0  0  0  0  0
   -0.5485    0.1222    0.5654 C   0  0  2  0  0  0  0  0  0  0  0  0
   -0.4629    1.5989    0.2578 C   0  0  0  0  0  0  0  0  0  0  0  0
  1  2  1  0
  2  3  1  0
  3  4  1  0
  4  5  1  0
  5  6  1  0
  6  7  2  0
  6  8  1  0
  9  8  1  6
  9 10  1  0
 10 11  1  0
 10 12  2  0
  9 13  1  0
 13 14  1  0
 15 14  1  6
 15 16  1  0
 16 17  1  6
 17 18  1  0
 18 19  1  0
 19 20  2  0
 20 21  1  0
 21 22  2  0
 21 23  1  0
 23 24  1  0
 24 25  1  0
 25 26  1  1
 25 27  1  0
 27 28  1  1
 28 29  1  0
 29 30  1  0
 30 31  1  6
 30  9  1  0
 30 15  1  0
 27 16  1  0
 25 19  1  0
M  END
>  <zinc_id>  (302) 
ZINC000004083606

>  <smiles>  (302) 
CCCCCC(=O)O[C@]1(C(C)=O)CC[C@H]2[C@@H]3CCC4=CC(=O)CC[C@]4(C)[C@H]3CC[C@@]21C

$$$$

     RDKit          3D

  4  3  0  0  0  0  0  0  0  0999 V2000
   -1.4365   -0.8515   -0.1237 C   0  0  0  0  0  0  0  0  0  0  0  0
    0.0055    0.0936    0.4096 S   0  0  0  0  0  0  0  0  0  0  0  0
    1.4983   -0.7449   -0.1272 C   0  0  0  0  0  0  0  0  0  0  0  0
   -0.0673    1.5029   -0.1587 O   0  0  0  0  0  0  0  0  0  0  0  0
  1  2  1  0
  2  3  1  0
  2  4  2  0
M  END
>  <zinc_id>  (303) 
ZINC000005224188

>  <smiles>  (303) 
CS(C)=O

$$$$

     RDKit          3D

 16 16  0  0  0  0  0  0  0  0999 V2000
    4.1005   -0.7104   -0.1568 C   0  0  0  0  0  0  0  0  0  0  0  0
    3.0124   -0.6823    0.8882 C   0  0  0  0  0  0  0  0  0  0  0  0
    2.1934    0.5924    0.7986 C   0  0  0  0  0  0  0  0  0  0  0  0
    1.5473    0.5517   -0.7065 C   0  0  2  0  0  0  0  0  0  0  0  0
    1.2097    2.1491   -0.6772 C   0  0  0  0  0  0  0  0  0  0  0  0
    0.1071    0.0403   -0.1921 C   0  0  0  0  0  0  0  0  0  0  0  0
    0.3398   -1.0808    0.7970 C   0  0  0  0  0  0  0  0  0  0  0  0
   -0.0654   -0.5876    2.1817 C   0  0  0  0  0  0  0  0  0  0  0  0
   -0.5376   -0.5234   -1.4321 C   0  0  0  0  0  0  0  0  0  0  0  0
   -0.4661    0.2750   -2.4210 O   0  0  0  0  0  0  0  0  0  0  0  0
   -1.7510   -1.2330   -1.1209 N   0  0  0  0  0  0  0  0  0  0  0  0
   -2.5236   -0.8399    0.0349 C   0  0  0  0  0  0  0  0  0  0  0  0
   -3.4956   -1.4843    0.4717 O   0  0  0  0  0  0  0  0  0  0  0  0
   -2.0733    0.3866    0.5977 N   0  0  0  0  0  0  0  0  0  0  0  0
   -0.7842    0.9713    0.3225 C   0  0  0  0  0  0  0  0  0  0  0  0
   -0.8134    2.1751    0.6144 O   0  0  0  0  0  0  0  0  0  0  0  0
  1  2  1  0
  2  3  1  0
  4  3  1  1
  4  5  1  0
  4  6  1  0
  6  7  1  0
  7  8  1  0
  6  9  1  0
  9 10  2  0
  9 11  1  0
 11 12  1  0
 12 13  2  0
 12 14  1  0
 14 15  1  0
 15 16  2  0
 15  6  1  0
M  END
>  <zinc_id>  (304) 
ZINC000013545636

>  <smiles>  (304) 
CCC[C@H](C)C1(CC)C(=O)NC(=O)NC1=O

$$$$

     RDKit          3D

 33 36  0  0  0  0  0  0  0  0999 V2000
   -4.4449    4.7785   -0.6059 C   0  0  0  0  0  0  0  0  0  0  0  0
   -5.0753    3.4755   -1.0766 C   0  0  0  0  0  0  0  0  0  0  0  0
   -4.0404    2.5940   -1.7663 C   0  0  0  0  0  0  0  0  0  0  0  0
   -4.3658    1.1876   -1.3728 C   0  0  0  0  0  0  0  0  0  0  0  0
   -5.5702    0.5720   -1.3819 N   0  0  0  0  0  0  0  0  0  0  0  0
   -5.5297   -0.5170   -0.6143 N   0  0  0  0  0  0  0  0  0  0  0  0
   -6.7161   -1.0306    0.0652 C   0  0  0  0  0  0  0  0  0  0  0  0
   -4.3124   -0.5887   -0.0306 C   0  0  0  0  0  0  0  0  0  0  0  0
   -3.5127    0.2700   -0.7725 C   0  0  0  0  0  0  0  0  0  0  0  0
   -2.1943    0.2928   -0.4728 N   0  0  0  0  0  0  0  0  0  0  0  0
   -1.6947   -0.3584    0.5962 C   0  0  0  0  0  0  0  0  0  0  0  0
   -0.2536   -0.5986    0.7392 C   0  0  0  0  0  0  0  0  0  0  0  0
    0.6247   -0.1828   -0.2529 C   0  0  0  0  0  0  0  0  0  0  0  0
    1.8904   -0.7365   -0.3948 C   0  0  0  0  0  0  0  0  0  0  0  0
    3.2051    0.1404   -1.1649 S   0  0  0  0  0  0  0  0  0  0  0  0
    2.9556    0.3624   -2.6188 O   0  0  0  0  0  0  0  0  0  0  0  0
    3.3780    1.4911   -0.5216 O   0  0  0  0  0  0  0  0  0  0  0  0
    4.6349   -0.7762   -0.9335 N   0  0  0  0  0  0  0  0  0  0  0  0
    5.5742   -0.6652   -2.0133 C   0  0  0  0  0  0  0  0  0  0  0  0
    6.5523    0.4624   -1.8514 C   0  0  0  0  0  0  0  0  0  0  0  0
    7.1019    0.5460   -0.5075 N   0  0  0  0  0  0  0  0  0  0  0  0
    7.8237    1.8158   -0.4497 C   0  0  0  0  0  0  0  0  0  0  0  0
    6.0090    0.6701    0.4544 C   0  0  0  0  0  0  0  0  0  0  0  0
    5.2192   -0.6081    0.3707 C   0  0  0  0  0  0  0  0  0  0  0  0
    2.0960   -1.9523    0.2462 C   0  0  0  0  0  0  0  0  0  0  0  0
    1.2936   -2.3832    1.2896 C   0  0  0  0  0  0  0  0  0  0  0  0
    0.1956   -1.6036    1.5828 C   0  0  0  0  0  0  0  0  0  0  0  0
   -0.5191   -1.7567    2.7735 O   0  0  0  0  0  0  0  0  0  0  0  0
   -0.0974   -0.9592    3.8727 C   0  0  0  0  0  0  0  0  0  0  0  0
    0.7374    0.2243    3.4009 C   0  0  0  0  0  0  0  0  0  0  0  0
   -2.5556   -0.9458    1.4352 N   0  0  0  0  0  0  0  0  0  0  0  0
   -3.8353   -1.2413    1.1001 C   0  0  0  0  0  0  0  0  0  0  0  0
   -4.5740   -1.9785    1.7862 O   0  0  0  0  0  0  0  0  0  0  0  0
  1  2  1  0
  2  3  1  0
  3  4  1  0
  4  5  2  0
  5  6  1  0
  6  7  1  0
  6  8  1  0
  8  9  2  0
  9 10  1  0
 10 11  2  0
 11 12  1  0
 12 13  2  0
 13 14  1  0
 14 15  1  0
 15 16  2  0
 15 17  2  0
 15 18  1  0
 18 19  1  0
 19 20  1  0
 20 21  1  0
 21 22  1  0
 21 23  1  0
 23 24  1  0
 14 25  2  0
 25 26  1  0
 26 27  2  0
 27 28  1  0
 28 29  1  0
 29 30  1  0
 11 31  1  0
 31 32  1  0
 32 33  2  0
  9  4  1  0
 27 12  1  0
 32  8  1  0
 24 18  1  0
M  END
>  <zinc_id>  (305) 
ZINC000019796168

>  <smiles>  (305) 
CCCc1nn(C)c2c(=O)[nH]c(-c3cc(S(=O)(=O)N4CCN(C)CC4)ccc3OCC)nc12

$$$$

     RDKit          3D

 27 30  0  0  0  0  0  0  0  0999 V2000
    5.8287    0.9934   -0.2811 C   0  0  0  0  0  0  0  0  0  0  0  0
    5.8239    0.9943   -0.3221 C   0  0  0  0  0  0  0  0  0  0  0  0
    6.2874    2.3231    0.2545 C   0  0  0  0  0  0  0  0  0  0  0  0
    6.9359   -0.0282   -0.1310 C   0  0  0  0  0  0  0  0  0  0  0  0
    4.5500    0.5627    0.1452 N   0  0  0  0  0  0  0  0  0  0  0  0
    3.3061    0.5947   -0.5741 C   0  0  0  0  0  0  0  0  0  0  0  0
    3.3490    1.1440   -1.7057 O   0  0  0  0  0  0  0  0  0  0  0  0
    2.5148   -0.8099   -0.6288 C   0  0  1  0  0  0  0  0  0  0  0  0
    2.5462   -0.9631    1.0031 C   0  0  0  0  0  0  0  0  0  0  0  0
    1.3814   -0.1417    1.4675 C   0  0  0  0  0  0  0  0  0  0  0  0
    0.4039   -1.0191    0.5213 C   0  0  1  0  0  0  0  0  0  0  0  0
   -0.9300    0.0147    0.4923 C   0  0  2  0  0  0  0  0  0  0  0  0
   -1.4795   -0.3607    1.9512 C   0  0  0  0  0  0  0  0  0  0  0  0
   -2.7637    0.4691    1.8322 C   0  0  0  0  0  0  0  0  0  0  0  0
   -3.7557   -0.6442    1.1517 C   0  0  1  0  0  0  0  0  0  0  0  0
   -4.8866    0.4186    0.8974 N   0  0  0  0  0  0  0  0  0  0  0  0
   -5.8473   -0.1422   -0.0097 C   0  0  0  0  0  0  0  0  0  0  0  0
   -6.9620    0.4241   -0.2318 O   0  0  0  0  0  0  0  0  0  0  0  0
   -5.3825   -1.2784   -0.8204 C   0  0  0  0  0  0  0  0  0  0  0  0
   -4.0879   -1.2433   -1.1474 C   0  0  0  0  0  0  0  0  0  0  0  0
   -3.1491   -0.4541   -0.3557 C   0  0  1  0  0  0  0  0  0  0  0  0
   -2.9615    0.9357   -0.6573 C   0  0  0  0  0  0  0  0  0  0  0  0
   -1.7528   -1.2552   -0.2593 C   0  0  1  0  0  0  0  0  0  0  0  0
   -1.2229   -0.7805   -1.7132 C   0  0  0  0  0  0  0  0  0  0  0  0
    0.2425   -0.7965   -1.7912 C   0  0  0  0  0  0  0  0  0  0  0  0
    1.0232   -0.1843   -0.7257 C   0  0  2  0  0  0  0  0  0  0  0  0
    0.9887    1.2273   -0.4599 C   0  0  0  0  0  0  0  0  0  0  0  0
  1  2  1  0
  2  3  1  0
  2  4  1  0
  2  5  1  0
  5  6  1  0
  6  7  2  0
  8  6  1  1
  8  9  1  0
  9 10  1  0
 11 10  1  1
 11 12  1  0
 12 13  1  1
 13 14  1  0
 15 14  1  1
 15 16  1  0
 16 17  1  0
 17 18  2  0
 17 19  1  0
 19 20  2  0
 20 21  1  0
 21 22  1  6
 21 23  1  0
 23 24  1  6
 24 25  1  0
 25 26  1  0
 26 27  1  1
 26  8  1  0
 26 11  1  0
 23 12  1  0
 21 15  1  0
M  END
>  <zinc_id>  (306) 
ZINC000003782599

>  <smiles>  (306) 
CC(C)(C)NC(=O)[C@H]1CC[C@H]2[C@@H]3CC[C@H]4NC(=O)C=C[C@]4(C)[C@H]3CC[C@]12C

$$$$

     RDKit          3D

 22 25  0  0  0  0  0  0  0  0999 V2000
    5.0976   -1.4081   -0.7330 C   0  0  0  0  0  0  0  0  0  0  0  0
    4.6284   -0.4365   -0.2219 C   0  0  0  0  0  0  0  0  0  0  0  0
    5.2835    0.7125    0.0605 N   0  0  0  0  0  0  0  0  0  0  0  0
    4.4241    1.6200    0.5851 C   0  0  0  0  0  0  0  0  0  0  0  0
    3.3408    0.8605    0.9981 C   0  0  0  0  0  0  0  0  0  0  0  0
    3.3513   -0.2021    0.1561 N   0  0  0  0  0  0  0  0  0  0  0  0
    2.3017   -1.1725   -0.1078 C   0  0  0  0  0  0  0  0  0  0  0  0
    1.0591   -0.6619    0.8613 C   0  0  2  0  0  0  0  0  0  0  0  0
    0.3129   -2.1322    0.7835 C   0  0  0  0  0  0  0  0  0  0  0  0
   -0.5723   -2.2519   -0.3486 C   0  0  0  0  0  0  0  0  0  0  0  0
   -1.6948   -1.2625   -0.4057 C   0  0  0  0  0  0  0  0  0  0  0  0
   -1.1796    0.0188   -0.2076 C   0  0  0  0  0  0  0  0  0  0  0  0
   -2.2258    0.8735   -0.3667 C   0  0  0  0  0  0  0  0  0  0  0  0
   -2.2539    2.2333   -0.4840 C   0  0  0  0  0  0  0  0  0  0  0  0
   -3.5037    2.8401   -0.4100 C   0  0  0  0  0  0  0  0  0  0  0  0
   -4.6594    2.0759   -0.3061 C   0  0  0  0  0  0  0  0  0  0  0  0
   -4.5797    0.6902   -0.2431 C   0  0  0  0  0  0  0  0  0  0  0  0
   -3.3584    0.0783   -0.2415 C   0  0  0  0  0  0  0  0  0  0  0  0
   -3.0013   -1.2287   -0.1954 N   0  0  0  0  0  0  0  0  0  0  0  0
   -3.8295   -2.4085   -0.1529 C   0  0  0  0  0  0  0  0  0  0  0  0
    0.2777    0.0173   -0.3977 C   0  0  0  0  0  0  0  0  0  0  0  0
    0.7813    1.1443   -0.6966 O   0  0  0  0  0  0  0  0  0  0  0  0
  1  2  1  0
  2  3  2  0
  3  4  1  0
  4  5  2  0
  5  6  1  0
  6  7  1  0
  8  7  1  6
  8  9  1  0
  9 10  1  0
 10 11  1  0
 11 12  2  0
 12 13  1  0
 13 14  2  0
 14 15  1  0
 15 16  2  0
 16 17  1  0
 17 18  2  0
 18 19  1  0
 19 20  1  0
 12 21  1  0
 21 22  2  0
  6  2  1  0
 21  8  1  0
 19 11  1  0
 18 13  1  0
M  END
>  <zinc_id>  (307) 
ZINC000000075126

>  <smiles>  (307) 
Cc1nccn1C[C@@H]1CCc2c(c3ccccc3n2C)C1=O

$$$$

     RDKit          2D

 36 40  0  0  0  0  0  0  0  0999 V2000
   -4.0552    4.4944    0.0000 C   0  0  0  0  0  0  0  0  0  0  0  0
   -3.1161    3.3248    0.0000 C   0  0  0  0  0  0  0  0  0  0  0  0
   -3.6595    1.9267    0.0000 C   0  0  0  0  0  0  0  0  0  0  0  0
   -4.8693    2.8134    0.0000 C   0  0  0  0  0  0  0  0  0  0  0  0
   -2.1684    1.7637    0.0000 C   0  0  0  0  0  0  0  0  0  0  0  0
   -1.2292    0.5940    0.0000 C   0  0  0  0  0  0  0  0  0  0  0  0
    0.2108    1.0141    0.0000 O   0  0  0  0  0  0  0  0  0  0  0  0
    1.2945   -0.0230    0.0000 C   0  0  0  0  0  0  0  0  0  0  0  0
    0.9383   -1.4801    0.0000 O   0  0  0  0  0  0  0  0  0  0  0  0
    2.7345    0.3971    0.0000 C   0  0  0  0  0  0  0  0  0  0  0  0
    3.8183   -0.6400    0.0000 S   0  0  0  0  0  0  0  0  0  0  0  0
    5.2583   -0.2199    0.0000 C   0  0  0  0  0  0  0  0  0  0  0  0
    6.3420   -1.2570    0.0000 C   0  0  0  0  0  0  0  0  0  0  0  0
    7.7820   -0.8369    0.0000 C   0  0  0  0  0  0  0  0  0  0  0  0
    9.0217    0.0075    0.0000 C   0  0  0  0  0  0  0  0  0  0  0  0
    8.6017    1.4475    0.0000 C   0  0  0  0  0  0  0  0  0  0  0  0
    7.1024    1.4930    0.0000 C   0  0  0  0  0  0  0  0  0  0  0  0
    5.6145    1.2372    0.0000 C   0  0  0  0  0  0  0  0  0  0  0  0
    6.5958    0.0812    0.0000 N   0  0  0  0  0  0  0  0  0  0  0  0
    5.7992    0.0497    0.0000 C   0  0  0  0  0  0  0  0  0  0  0  0
   -1.3922   -0.8971    0.0000 C   0  0  0  0  0  0  0  0  0  0  0  0
   -0.0770   -1.6183    0.0000 C   0  0  0  0  0  0  0  0  0  0  0  0
   -2.5618   -1.8362    0.0000 C   0  0  0  0  0  0  0  0  0  0  0  0
   -2.2561   -3.3047    0.0000 C   0  0  0  0  0  0  0  0  0  0  0  0
   -0.8883   -3.9205    0.0000 O   0  0  0  0  0  0  0  0  0  0  0  0
   -3.5582   -4.0493    0.0000 C   0  0  0  0  0  0  0  0  0  0  0  0
   -4.6688   -3.0410    0.0000 C   0  0  0  0  0  0  0  0  0  0  0  0
   -4.0530   -1.6732    0.0000 C   0  0  0  0  0  0  0  0  0  0  0  0
   -4.3064   -0.1846    0.0000 C   0  0  0  0  0  0  0  0  0  0  0  0
   -3.2693    0.8991    0.0000 C   0  0  0  0  0  0  0  0  0  0  0  0
   -1.8123    0.5429    0.0000 C   0  0  0  0  0  0  0  0  0  0  0  0
   -0.7752    1.6267    0.0000 C   0  0  0  0  0  0  0  0  0  0  0  0
   -4.9921   -0.5036    0.0000 C   0  0  0  0  0  0  0  0  0  0  0  0
   -6.4321   -0.9236    0.0000 C   0  0  0  0  0  0  0  0  0  0  0  0
   -4.8291    0.9875    0.0000 C   0  0  0  0  0  0  0  0  0  0  0  0
   -6.1443    1.7087    0.0000 O   0  0  0  0  0  0  0  0  0  0  0  0
  1  2  2  0
  3  2  1  6
  3  4  1  0
  3  5  1  0
  5  6  1  0
  6  7  1  1
  7  8  1  0
  8  9  2  0
  8 10  1  0
 10 11  1  0
 11 12  1  0
 12 13  1  0
 14 13  1  6
 14 15  1  0
 15 16  1  0
 17 16  1  6
 17 18  1  0
 17 19  1  0
 19 20  1  0
  6 21  1  0
 21 22  1  6
 21 23  1  0
 23 24  1  6
 24 25  2  0
 24 26  1  0
 26 27  1  0
 28 27  1  6
 28 29  1  0
 29 30  1  0
 30 31  1  0
 31 32  1  1
 28 33  1  0
 33 34  1  1
 33 35  1  0
 35 36  1  6
 35  3  1  0
 18 12  1  0
 31 21  1  0
 19 14  1  0
 28 23  1  0
M  END
>  <zinc_id>  (308) 
ZINC000003931840

>  <smiles>  (308) 
C=C[C@]1(C)C[C@@H](OC(=O)CSC2C[C@@H]3CC[C@H](C2)N3C)[C@]2(C)[C@H](C)CC[C@]3(CCC(=O)[C@H]32)[C@@H](C)[C@@H]1O

$$$$

     RDKit          3D

 22 22  0  0  0  0  0  0  0  0999 V2000
    0.8055    1.3169    0.4642 C   0  0  0  0  0  0  0  0  0  0  0  0
    0.1869    0.0390   -0.0110 C   0  0  0  0  0  0  0  0  0  0  0  0
    0.9137   -0.6680   -0.8770 C   0  0  0  0  0  0  0  0  0  0  0  0
    2.0938   -0.1193   -1.5334 C   0  0  0  0  0  0  0  0  0  0  0  0
    3.2929   -0.6164   -1.2278 C   0  0  0  0  0  0  0  0  0  0  0  0
    3.5306   -1.0782    0.1415 C   0  0  0  0  0  0  0  0  0  0  0  0
    3.0179   -2.4231    0.4967 C   0  0  0  0  0  0  0  0  0  0  0  0
    4.4762   -0.4500    0.8142 C   0  0  0  0  0  0  0  0  0  0  0  0
    5.4167    0.4784    0.1791 C   0  0  0  0  0  0  0  0  0  0  0  0
    5.3777    1.7035    0.5061 O   0  0  0  0  0  0  0  0  0  0  0  0
    6.6255   -0.0587   -0.2731 O   0  0  0  0  0  0  0  0  0  0  0  0
   -0.5196   -0.7425    1.0126 C   0  0  0  0  0  0  0  0  0  0  0  0
   -1.6878   -0.2295    1.4024 C   0  0  0  0  0  0  0  0  0  0  0  0
   -2.6374    0.0554    0.3187 C   0  0  0  0  0  0  0  0  0  0  0  0
   -3.3587   -0.9961   -0.0735 C   0  0  0  0  0  0  0  0  0  0  0  0
   -3.1174   -2.3674    0.4573 C   0  0  0  0  0  0  0  0  0  0  0  0
   -4.4858   -0.6915   -1.0087 C   0  0  0  0  0  0  0  0  0  0  0  0
   -5.5106    0.1846   -0.2966 C   0  0  0  0  0  0  0  0  0  0  0  0
   -4.8073    0.9865    0.7675 C   0  0  0  0  0  0  0  0  0  0  0  0
   -3.3857    1.3517    0.3538 C   0  0  0  0  0  0  0  0  0  0  0  0
   -2.8543    2.2774    1.4223 C   0  0  0  0  0  0  0  0  0  0  0  0
   -3.3730    2.0473   -0.9792 C   0  0  0  0  0  0  0  0  0  0  0  0
  1  2  1  0
  2  3  2  0
  3  4  1  0
  4  5  2  0
  5  6  1  0
  6  7  1  0
  6  8  2  0
  8  9  1  0
  9 10  2  0
  9 11  1  0
  2 12  1  0
 12 13  2  0
 13 14  1  0
 14 15  2  0
 15 16  1  0
 15 17  1  0
 17 18  1  0
 18 19  1  0
 19 20  1  0
 20 21  1  0
 20 22  1  0
 20 14  1  0
M  END
>  <zinc_id>  (309) 
ZINC000009302201

>  <smiles>  (309) 
CC1=C(/C=C\C(C)=C\C=C/C(C)=C\C(=O)O)C(C)(C)CCC1

$$$$

     RDKit          3D

 28 31  0  0  0  0  0  0  0  0999 V2000
    8.0691    1.2856   -0.2928 C   0  0  0  0  0  0  0  0  0  0  0  0
    6.9941    0.3471   -0.0180 N   0  0  0  0  0  0  0  0  0  0  0  0
    5.6713    0.6181   -0.4912 C   0  0  0  0  0  0  0  0  0  0  0  0
    5.5576    1.5695   -1.3052 O   0  0  0  0  0  0  0  0  0  0  0  0
    4.5187    0.2470    0.3269 C   0  0  0  0  0  0  0  0  0  0  0  0
    4.2040    0.6515    1.6185 C   0  0  0  0  0  0  0  0  0  0  0  0
    3.1486   -0.1300    1.9527 N   0  0  0  0  0  0  0  0  0  0  0  0
    2.4863   -0.4819    0.8673 N   0  0  0  0  0  0  0  0  0  0  0  0
    1.2029   -1.1267    0.7824 C   0  0  0  0  0  0  0  0  0  0  0  0
    0.0452   -0.4099    0.7497 N   0  0  0  0  0  0  0  0  0  0  0  0
   -0.8195   -0.6352   -0.2628 C   0  0  0  0  0  0  0  0  0  0  0  0
   -0.5948   -1.7156   -1.1134 C   0  0  0  0  0  0  0  0  0  0  0  0
   -1.3078   -1.4604   -2.2023 N   0  0  0  0  0  0  0  0  0  0  0  0
   -2.2373   -0.5389   -1.8504 C   0  0  0  0  0  0  0  0  0  0  0  0
   -1.9425   -0.0579   -0.6794 N   0  0  0  0  0  0  0  0  0  0  0  0
   -2.9743    0.5415    0.3808 C   0  0  2  0  0  0  0  0  0  0  0  0
   -4.1037   -0.3040   -0.1399 O   0  0  0  0  0  0  0  0  0  0  0  0
   -5.3452    0.4110    0.2571 C   0  0  2  0  0  0  0  0  0  0  0  0
   -5.7631    0.5739   -1.3574 C   0  0  0  0  0  0  0  0  0  0  0  0
   -6.4877    1.7263   -1.4371 O   0  0  0  0  0  0  0  0  0  0  0  0
   -4.7703    2.0410    0.3021 C   0  0  1  0  0  0  0  0  0  0  0  0
   -4.0006    1.8712    1.5965 O   0  0  0  0  0  0  0  0  0  0  0  0
   -3.4924    1.7237   -0.7785 C   0  0  1  0  0  0  0  0  0  0  0  0
   -2.6308    2.7926   -0.1590 O   0  0  0  0  0  0  0  0  0  0  0  0
    0.1173   -2.7666   -0.5491 C   0  0  0  0  0  0  0  0  0  0  0  0
    0.0118   -4.0174   -1.1693 N   0  0  0  0  0  0  0  0  0  0  0  0
    1.0772   -2.4033    0.3334 N   0  0  0  0  0  0  0  0  0  0  0  0
    3.3658   -0.3523   -0.1587 C   0  0  0  0  0  0  0  0  0  0  0  0
  1  2  1  0
  2  3  1  0
  3  4  2  0
  3  5  1  0
  5  6  1  0
  6  7  2  0
  7  8  1  0
  8  9  1  0
  9 10  2  0
 10 11  1  0
 11 12  2  0
 12 13  1  0
 13 14  2  0
 14 15  1  0
 16 15  1  6
 16 17  1  0
 17 18  1  0
 18 19  1  6
 19 20  1  0
 18 21  1  0
 21 22  1  1
 21 23  1  0
 23 24  1  1
 12 25  1  0
 25 26  1  0
 25 27  2  0
  8 28  1  0
 28  5  2  0
 27  9  1  0
 15 11  1  0
 23 16  1  0
M  END
>  <zinc_id>  (310) 
ZINC000013818943

>  <smiles>  (310) 
CNC(=O)c1cnn(-c2nc(N)c3ncn([C@@H]4O[C@H](CO)[C@@H](O)[C@H]4O)c3n2)c1

$$$$

     RDKit          3D

 36 39  0  0  0  0  0  0  0  0999 V2000
   -7.3200   -0.1484    1.9211 C   0  0  0  0  0  0  0  0  0  0  0  0
   -7.0724   -0.6838    0.6389 O   0  0  0  0  0  0  0  0  0  0  0  0
   -6.2118    0.0341   -0.1883 C   0  0  0  0  0  0  0  0  0  0  0  0
   -4.8614   -0.1344    0.0372 C   0  0  0  0  0  0  0  0  0  0  0  0
   -3.9801    0.6560   -0.6853 C   0  0  0  0  0  0  0  0  0  0  0  0
   -2.6068    0.5242   -0.3904 N   0  0  0  0  0  0  0  0  0  0  0  0
   -2.0887   -0.4245    0.5486 C   0  0  0  0  0  0  0  0  0  0  0  0
   -2.2910   -0.1219    1.8896 C   0  0  0  0  0  0  0  0  0  0  0  0
   -2.7722    1.1811    2.2912 C   0  0  0  0  0  0  0  0  0  0  0  0
   -3.2274    2.2264    2.5359 N   0  0  0  0  0  0  0  0  0  0  0  0
   -1.6652   -0.9516    2.8123 C   0  0  0  0  0  0  0  0  0  0  0  0
   -0.6439   -1.7655    2.4489 N   0  0  0  0  0  0  0  0  0  0  0  0
   -0.1677   -1.7692    1.1800 C   0  0  0  0  0  0  0  0  0  0  0  0
    1.1874   -1.9101    0.9030 C   0  0  0  0  0  0  0  0  0  0  0  0
    1.6850   -1.5953   -0.3544 C   0  0  0  0  0  0  0  0  0  0  0  0
    2.9373   -1.0123   -0.5365 O   0  0  0  0  0  0  0  0  0  0  0  0
    3.7855   -0.6795    0.5334 C   0  0  0  0  0  0  0  0  0  0  0  0
    5.1809   -1.1501    0.1432 C   0  0  0  0  0  0  0  0  0  0  0  0
    5.6009   -0.5851   -1.1896 C   0  0  0  0  0  0  0  0  0  0  0  0
    6.8168    0.2112   -1.0786 N   0  0  0  0  0  0  0  0  0  0  0  0
    6.4705    1.5404   -0.5920 C   0  0  0  0  0  0  0  0  0  0  0  0
    7.5939    2.1592    0.2008 C   0  0  0  0  0  0  0  0  0  0  0  0
    7.8399    1.4295    1.4219 N   0  0  0  0  0  0  0  0  0  0  0  0
    7.2382    2.0606    2.5808 C   0  0  0  0  0  0  0  0  0  0  0  0
    7.3802    0.0721    1.2511 C   0  0  0  0  0  0  0  0  0  0  0  0
    7.7421   -0.3904   -0.1492 C   0  0  0  0  0  0  0  0  0  0  0  0
    0.7502   -1.5390   -1.3812 C   0  0  0  0  0  0  0  0  0  0  0  0
    1.2264   -1.4991   -2.6914 O   0  0  0  0  0  0  0  0  0  0  0  0
    1.6988   -2.6645   -3.3335 C   0  0  0  0  0  0  0  0  0  0  0  0
   -0.5970   -1.3599   -1.0886 C   0  0  0  0  0  0  0  0  0  0  0  0
   -1.0562   -1.2950    0.2217 C   0  0  0  0  0  0  0  0  0  0  0  0
   -4.4071    1.8535   -1.2154 C   0  0  0  0  0  0  0  0  0  0  0  0
   -3.3311    3.2152   -1.4428 Cl  0  0  0  0  0  0  0  0  0  0  0  0
   -5.7629    2.0210   -1.4396 C   0  0  0  0  0  0  0  0  0  0  0  0
   -6.6752    1.1539   -0.8502 C   0  0  0  0  0  0  0  0  0  0  0  0
   -8.3958    1.3408   -1.0459 Cl  0  0  0  0  0  0  0  0  0  0  0  0
  1  2  1  0
  2  3  1  0
  3  4  2  0
  4  5  1  0
  5  6  1  0
  6  7  1  0
  7  8  2  0
  8  9  1  0
  9 10  3  0
  8 11  1  0
 11 12  2  0
 12 13  1  0
 13 14  2  0
 14 15  1  0
 15 16  1  0
 16 17  1  0
 17 18  1  0
 18 19  1  0
 19 20  1  0
 20 21  1  0
 21 22  1  0
 22 23  1  0
 23 24  1  0
 23 25  1  0
 25 26  1  0
 15 27  2  0
 27 28  1  0
 28 29  1  0
 27 30  1  0
 30 31  2  0
  5 32  2  0
 32 33  1  0
 32 34  1  0
 34 35  2  0
 35 36  1  0
 35  3  1  0
 31  7  1  0
 31 13  1  0
 26 20  1  0
M  END
>  <zinc_id>  (311) 
ZINC000022448983

>  <smiles>  (311) 
COc1cc(Nc2c(C#N)cnc3cc(OCCCN4CCN(C)CC4)c(OC)cc23)c(Cl)cc1Cl

$$$$

     RDKit          3D

 25 27  0  0  0  0  0  0  0  0999 V2000
   -4.7073   -0.9462   -3.1835 C   0  0  0  0  0  0  0  0  0  0  0  0
   -4.3583   -0.0719   -2.3196 N   0  0  0  0  0  0  0  0  0  0  0  0
   -3.0171    0.4994   -2.4058 C   0  0  0  0  0  0  0  0  0  0  0  0
   -2.2394   -0.0073   -1.2228 C   0  0  0  0  0  0  0  0  0  0  0  0
   -1.2409    0.8769   -0.7860 O   0  0  0  0  0  0  0  0  0  0  0  0
   -0.0948    0.3367   -0.2266 C   0  0  0  0  0  0  0  0  0  0  0  0
    0.4798   -0.7295   -0.9068 C   0  0  0  0  0  0  0  0  0  0  0  0
    1.7474   -1.0960   -0.4716 C   0  0  0  0  0  0  0  0  0  0  0  0
    2.0391   -1.0668    0.8863 C   0  0  0  0  0  0  0  0  0  0  0  0
    3.4103   -1.4098    1.3739 C   0  0  0  0  0  0  0  0  0  0  0  0
    4.3391   -0.7939    0.2251 C   0  0  2  0  0  0  0  0  0  0  0  0
    5.8664   -1.8609    0.6804 S   0  0  0  0  0  0  0  0  0  0  0  0
    7.0065   -0.4827    0.8787 C   0  0  0  0  0  0  0  0  0  0  0  0
    8.1810   -0.5052    0.4003 O   0  0  0  0  0  0  0  0  0  0  0  0
    6.1709    0.6675    0.6954 N   0  0  0  0  0  0  0  0  0  0  0  0
    4.8480    0.3981    1.1091 C   0  0  0  0  0  0  0  0  0  0  0  0
    4.0420    1.2688    1.5538 O   0  0  0  0  0  0  0  0  0  0  0  0
    1.0836   -0.4843    1.7003 C   0  0  0  0  0  0  0  0  0  0  0  0
    0.1207    0.3487    1.1427 C   0  0  0  0  0  0  0  0  0  0  0  0
   -5.0698    0.0507   -1.0932 C   0  0  0  0  0  0  0  0  0  0  0  0
   -6.2506   -0.6278   -0.9006 C   0  0  0  0  0  0  0  0  0  0  0  0
   -6.7739   -0.6950    0.3848 C   0  0  0  0  0  0  0  0  0  0  0  0
   -5.9507   -0.2934    1.4292 C   0  0  0  0  0  0  0  0  0  0  0  0
   -4.9466    0.6294    1.1768 C   0  0  0  0  0  0  0  0  0  0  0  0
   -4.6853    0.9095   -0.1205 N   0  0  0  0  0  0  0  0  0  0  0  0
  1  2  1  0
  2  3  1  0
  3  4  1  0
  4  5  1  0
  5  6  1  0
  6  7  2  0
  7  8  1  0
  8  9  2  0
  9 10  1  0
 11 10  1  1
 11 12  1  0
 12 13  1  0
 13 14  2  0
 13 15  1  0
 15 16  1  0
 16 17  2  0
  9 18  1  0
 18 19  2  0
  2 20  1  0
 20 21  2  0
 21 22  1  0
 22 23  2  0
 23 24  1  0
 24 25  2  0
 19  6  1  0
 25 20  1  0
 16 11  1  0
M  END
>  <zinc_id>  (312) 
ZINC000000968328

>  <smiles>  (312) 
CN(CCOc1ccc(C[C@@H]2SC(=O)NC2=O)cc1)c1ccccn1

$$$$

     RDKit          3D

 39 44  0  0  0  0  0  0  0  0999 V2000
    0.3048   -5.6749   -0.4033 C   0  0  0  0  0  0  0  0  0  0  0  0
   -1.0321   -4.9515   -0.3310 C   0  0  0  0  0  0  0  0  0  0  0  0
   -1.0005   -3.6554   -1.0943 C   0  0  0  0  0  0  0  0  0  0  0  0
    0.1734   -2.8728   -0.6618 C   0  0  0  0  0  0  0  0  0  0  0  0
    1.4553   -3.3028   -0.7551 N   0  0  0  0  0  0  0  0  0  0  0  0
    2.1973   -2.4876    0.0333 C   0  0  0  0  0  0  0  0  0  0  0  0
    1.4086   -1.3580    0.2128 C   0  0  0  0  0  0  0  0  0  0  0  0
    1.9769   -0.1062    0.4106 C   0  0  0  0  0  0  0  0  0  0  0  0
    3.3599    0.0165    0.4348 C   0  0  0  0  0  0  0  0  0  0  0  0
    4.0343    1.2127   -0.0858 C   0  0  0  0  0  0  0  0  0  0  0  0
    4.7712    1.3554   -1.1920 N   0  0  0  0  0  0  0  0  0  0  0  0
    5.7623    2.2504   -1.0108 C   0  0  0  0  0  0  0  0  0  0  0  0
    7.0252    2.4408   -1.5585 C   0  0  0  0  0  0  0  0  0  0  0  0
    8.0363    2.9666   -0.7640 C   0  0  0  0  0  0  0  0  0  0  0  0
    7.6319    3.9276    0.1553 C   0  0  0  0  0  0  0  0  0  0  0  0
    6.3693    3.7812    0.7118 C   0  0  0  0  0  0  0  0  0  0  0  0
    5.4638    2.8680    0.1975 C   0  0  0  0  0  0  0  0  0  0  0  0
    4.3621    2.2612    0.7017 N   0  0  0  0  0  0  0  0  0  0  0  0
    3.5869    2.7415    1.8220 C   0  0  0  0  0  0  0  0  0  0  0  0
    4.0597   -1.1614    0.6668 C   0  0  0  0  0  0  0  0  0  0  0  0
    3.5522   -2.3998    0.3287 C   0  0  0  0  0  0  0  0  0  0  0  0
    4.3655   -3.6278    0.2381 C   0  0  0  0  0  0  0  0  0  0  0  0
    0.1190   -1.7600    0.1069 N   0  0  0  0  0  0  0  0  0  0  0  0
   -1.0040   -1.1632    0.7874 C   0  0  0  0  0  0  0  0  0  0  0  0
   -2.2568   -1.2256    0.0042 C   0  0  0  0  0  0  0  0  0  0  0  0
   -2.4533   -0.4138   -1.1060 C   0  0  0  0  0  0  0  0  0  0  0  0
   -3.6951    0.1509   -1.3687 C   0  0  0  0  0  0  0  0  0  0  0  0
   -4.8221   -0.3534   -0.7339 C   0  0  0  0  0  0  0  0  0  0  0  0
   -5.9601    0.5578   -0.5880 C   0  0  0  0  0  0  0  0  0  0  0  0
   -6.8979    0.7393   -1.5844 C   0  0  0  0  0  0  0  0  0  0  0  0
   -7.7073    1.8458   -1.6093 C   0  0  0  0  0  0  0  0  0  0  0  0
   -7.4410    2.8979   -0.7532 C   0  0  0  0  0  0  0  0  0  0  0  0
   -6.5950    2.6996    0.3131 C   0  0  0  0  0  0  0  0  0  0  0  0
   -5.8691    1.5363    0.3696 C   0  0  0  0  0  0  0  0  0  0  0  0
   -5.1677    1.2358    1.6162 C   0  0  0  0  0  0  0  0  0  0  0  0
   -4.2654    2.0222    1.9819 O   0  0  0  0  0  0  0  0  0  0  0  0
   -5.7738    0.3190    2.4781 O   0  0  0  0  0  0  0  0  0  0  0  0
   -4.6723   -1.4650    0.0810 C   0  0  0  0  0  0  0  0  0  0  0  0
   -3.4021   -1.8474    0.4876 C   0  0  0  0  0  0  0  0  0  0  0  0
  1  2  1  0
  2  3  1  0
  3  4  1  0
  4  5  2  0
  5  6  1  0
  6  7  2  0
  7  8  1  0
  8  9  2  0
  9 10  1  0
 10 11  2  0
 11 12  1  0
 12 13  2  0
 13 14  1  0
 14 15  2  0
 15 16  1  0
 16 17  2  0
 17 18  1  0
 18 19  1  0
  9 20  1  0
 20 21  2  0
 21 22  1  0
  7 23  1  0
 23 24  1  0
 24 25  1  0
 25 26  2  0
 26 27  1  0
 27 28  2  0
 28 29  1  0
 29 30  2  0
 30 31  1  0
 31 32  2  0
 32 33  1  0
 33 34  2  0
 34 35  1  0
 35 36  2  0
 35 37  1  0
 28 38  1  0
 38 39  2  0
 23  4  1  0
 39 25  1  0
 21  6  1  0
 34 29  1  0
 18 10  1  0
 17 12  1  0
M  END
>  <zinc_id>  (313) 
ZINC000001530886

>  <smiles>  (313) 
CCCc1nc2c(C)cc(-c3nc4ccccc4n3C)cc2n1Cc1ccc(-c2ccccc2C(=O)O)cc1

$$$$

     RDKit          3D

 21 23  0  0  0  0  0  0  0  0999 V2000
    0.9291    0.1860   -3.0892 O   0  0  0  0  0  0  0  0  0  0  0  0
    0.4305    0.2742   -1.9521 C   0  0  0  0  0  0  0  0  0  0  0  0
   -0.3987    1.3716   -1.5489 N   0  0  0  0  0  0  0  0  0  0  0  0
   -1.2533    1.2288   -0.4057 C   0  0  0  0  0  0  0  0  0  0  0  0
   -2.4480    1.9093   -0.2872 C   0  0  0  0  0  0  0  0  0  0  0  0
   -3.5475    1.3848    0.3787 C   0  0  0  0  0  0  0  0  0  0  0  0
   -3.4431    0.0938    0.8809 C   0  0  0  0  0  0  0  0  0  0  0  0
   -4.8797   -0.9172    0.9958 Cl  0  0  0  0  0  0  0  0  0  0  0  0
   -2.1679   -0.4298    1.0459 C   0  0  0  0  0  0  0  0  0  0  0  0
   -1.0577    0.1497    0.4471 C   0  0  0  0  0  0  0  0  0  0  0  0
    0.1936   -0.6228    0.2460 C   0  0  1  0  0  0  0  0  0  0  0  0
    1.3271    0.2209    0.6612 C   0  0  0  0  0  0  0  0  0  0  0  0
    2.3104    0.8823    0.9108 C   0  0  0  0  0  0  0  0  0  0  0  0
    3.4942    1.7131    0.6305 C   0  0  0  0  0  0  0  0  0  0  0  0
    4.6222    1.5184    1.5836 C   0  0  0  0  0  0  0  0  0  0  0  0
    4.7588    0.9446    0.1658 C   0  0  0  0  0  0  0  0  0  0  0  0
    0.1858   -1.9508    0.9477 C   0  0  0  0  0  0  0  0  0  0  0  0
    1.4152   -2.5391    0.7314 F   0  0  0  0  0  0  0  0  0  0  0  0
   -0.0042   -1.8237    2.2998 F   0  0  0  0  0  0  0  0  0  0  0  0
   -0.7934   -2.7242    0.3641 F   0  0  0  0  0  0  0  0  0  0  0  0
    0.3266   -0.8698   -1.1537 O   0  0  0  0  0  0  0  0  0  0  0  0
  1  2  2  0
  2  3  1  0
  3  4  1  0
  4  5  2  0
  5  6  1  0
  6  7  2  0
  7  8  1  0
  7  9  1  0
  9 10  2  0
 10 11  1  0
 11 12  1  1
 12 13  3  0
 13 14  1  0
 14 15  1  0
 15 16  1  0
 11 17  1  0
 17 18  1  0
 17 19  1  0
 17 20  1  0
 11 21  1  0
 21  2  1  0
 10  4  1  0
 16 14  1  0
M  END
>  <zinc_id>  (314) 
ZINC000002020233

>  <smiles>  (314) 
O=C1Nc2ccc(Cl)cc2[C@@](C#CC2CC2)(C(F)(F)F)O1

$$$$

     RDKit          3D

 15 15  0  0  0  0  0  0  0  0999 V2000
    3.7977   -0.0841    1.2390 C   0  0  0  0  0  0  0  0  0  0  0  0
    3.4826   -0.2838   -0.1417 C   0  0  0  0  0  0  0  0  0  0  0  0
    2.2403   -1.0988   -0.2375 C   0  0  0  0  0  0  0  0  0  0  0  0
    1.2697   -0.6252   -1.2722 C   0  0  0  0  0  0  0  0  0  0  0  0
   -0.0618   -0.8542   -0.9024 N   0  0  0  0  0  0  0  0  0  0  0  0
   -0.0687   -1.2384    0.4403 C   0  0  0  0  0  0  0  0  0  0  0  0
   -1.5701   -1.5282    0.9907 C   0  0  2  0  0  0  0  0  0  0  0  0
   -2.1225   -1.8567   -0.3789 O   0  0  0  0  0  0  0  0  0  0  0  0
   -2.2146    0.0562    0.8803 C   0  0  1  0  0  0  0  0  0  0  0  0
   -2.0209    0.2682    2.3495 O   0  0  0  0  0  0  0  0  0  0  0  0
   -0.7595    0.8590    0.5247 C   0  0  2  0  0  0  0  0  0  0  0  0
   -1.5236    2.1325    0.3409 O   0  0  0  0  0  0  0  0  0  0  0  0
   -0.9633    0.4006   -1.1096 C   0  0  1  0  0  0  0  0  0  0  0  0
    0.2210    1.3478   -1.6935 C   0  0  0  0  0  0  0  0  0  0  0  0
    0.2937    2.5052   -1.0296 O   0  0  0  0  0  0  0  0  0  0  0  0
  1  2  1  0
  2  3  1  0
  3  4  1  0
  4  5  1  0
  5  6  1  0
  6  7  1  0
  7  8  1  6
  7  9  1  0
  9 10  1  1
  9 11  1  0
 11 12  1  6
 11 13  1  0
 13 14  1  6
 14 15  1  0
 13  5  1  0
M  END
>  <zinc_id>  (315) 
ZINC000003794711

>  <smiles>  (315) 
CCCCN1C[C@H](O)[C@@H](O)[C@H](O)[C@H]1CO

$$$$

     RDKit          3D

 19 21  0  0  0  0  0  0  0  0999 V2000
    4.1361   -0.2358    1.5186 O   0  0  0  0  0  0  0  0  0  0  0  0
    3.6945   -0.8636    1.4008 C   0  0  0  0  0  0  0  0  0  0  0  0
    3.0826   -0.7651   -0.1432 C   0  0  1  0  0  0  0  0  0  0  0  0
    1.6504   -0.8909    0.3612 O   0  0  0  0  0  0  0  0  0  0  0  0
    1.4232   -0.4964   -1.1356 C   0  0  1  0  0  0  0  0  0  0  0  0
   -0.1779   -0.6397   -1.0379 N   0  0  0  0  0  0  0  0  0  0  0  0
   -0.8706   -0.6794   -2.1965 C   0  0  0  0  0  0  0  0  0  0  0  0
   -2.1302   -0.8781   -1.7336 N   0  0  0  0  0  0  0  0  0  0  0  0
   -2.2002   -0.1755   -0.5941 C   0  0  0  0  0  0  0  0  0  0  0  0
   -0.9091   -0.1936   -0.0610 C   0  0  0  0  0  0  0  0  0  0  0  0
   -0.4402    0.6572    0.9736 N   0  0  0  0  0  0  0  0  0  0  0  0
   -1.1807    1.2642    1.8522 C   0  0  0  0  0  0  0  0  0  0  0  0
   -2.6067    1.1788    1.9727 N   0  0  0  0  0  0  0  0  0  0  0  0
   -3.6306    0.9106    0.9700 C   0  0  0  0  0  0  0  0  0  0  0  0
   -3.3177   -0.6779    0.5114 C   0  0  1  0  0  0  0  0  0  0  0  0
   -4.4460   -0.6453   -0.5502 O   0  0  0  0  0  0  0  0  0  0  0  0
    1.4420    1.0860   -0.5582 C   0  0  0  0  0  0  0  0  0  0  0  0
    3.0328    0.9854   -0.1170 C   0  0  2  0  0  0  0  0  0  0  0  0
    3.4481    1.0591   -1.5917 O   0  0  0  0  0  0  0  0  0  0  0  0
  1  2  1  0
  3  2  1  1
  3  4  1  0
  4  5  1  0
  5  6  1  1
  6  7  1  0
  7  8  2  0
  8  9  1  0
  9 10  2  0
 10 11  1  0
 11 12  2  0
 12 13  1  0
 13 14  1  0
 14 15  1  0
 15 16  1  6
  5 17  1  0
 17 18  1  0
 18 19  1  6
 18  3  1  0
 10  6  1  0
 15  9  1  0
M  END
>  <zinc_id>  (316) 
ZINC000003806262

>  <smiles>  (316) 
OC[C@H]1O[C@@H](n2cnc3c2N=CNC[C@H]3O)C[C@@H]1O

$$$$

     RDKit          3D

 22 26  0  0  0  0  0  0  0  0999 V2000
    4.1460   -0.9831    1.2736 C   0  0  0  0  0  0  0  0  0  0  0  0
    3.5748   -1.5288    0.2316 O   0  0  0  0  0  0  0  0  0  0  0  0
    2.7079   -0.8191   -0.6092 C   0  0  0  0  0  0  0  0  0  0  0  0
    3.0627    0.4043   -1.1802 C   0  0  0  0  0  0  0  0  0  0  0  0
    2.2187    1.5182   -1.0985 C   0  0  0  0  0  0  0  0  0  0  0  0
    1.0214    1.3263   -0.4185 C   0  0  0  0  0  0  0  0  0  0  0  0
    0.5557    0.0113   -0.4824 C   0  0  0  0  0  0  0  0  0  0  0  0
    1.3436   -1.0931   -0.5093 C   0  0  0  0  0  0  0  0  0  0  0  0
    0.5432   -2.0352    0.1478 O   0  0  0  0  0  0  0  0  0  0  0  0
   -0.8465   -1.8501   -0.5207 C   0  0  1  0  0  0  0  0  0  0  0  0
   -1.6556   -2.0285    0.8788 C   0  0  0  0  0  0  0  0  0  0  0  0
   -2.4563   -2.9331    0.8204 O   0  0  0  0  0  0  0  0  0  0  0  0
   -1.0460   -1.5523    2.1056 C   0  0  0  0  0  0  0  0  0  0  0  0
   -0.4470   -0.1765    1.8009 C   0  0  0  0  0  0  0  0  0  0  0  0
   -1.5833    0.2933    0.7355 C   0  0  1  0  0  0  0  0  0  0  0  0
   -1.0751    1.9203    0.7482 C   0  0  1  0  0  0  0  0  0  0  0  0
   -0.2193    2.0865   -0.6256 C   0  0  0  0  0  0  0  0  0  0  0  0
   -2.3955    2.2238   -0.0427 N   0  0  0  0  0  0  0  0  0  0  0  0
   -2.4254    3.6091    0.0532 C   0  0  0  0  0  0  0  0  0  0  0  0
   -2.4800    1.5375   -1.2165 C   0  0  0  0  0  0  0  0  0  0  0  0
   -1.7439    0.2883   -1.5339 C   0  0  0  0  0  0  0  0  0  0  0  0
   -0.8002   -0.2189   -0.5582 C   0  0  1  0  0  0  0  0  0  0  0  0
  1  2  1  0
  2  3  1  0
  3  4  2  0
  4  5  1  0
  5  6  2  0
  6  7  1  0
  7  8  2  0
  8  9  1  0
 10  9  1  1
 10 11  1  0
 11 12  2  0
 11 13  1  0
 13 14  1  0
 15 14  1  1
 15 16  1  0
 16 17  1  6
 16 18  1  0
 18 19  1  0
 18 20  1  0
 20 21  1  0
 22 21  1  6
  8  3  1  0
 22 10  1  0
 17  6  1  0
 22  7  1  0
 22 15  1  0
M  END
>  <zinc_id>  (317) 
ZINC000001280665

>  <smiles>  (317) 
COc1ccc2c3c1O[C@H]1C(=O)CC[C@H]4[C@@H](C2)N(C)CC[C@]314

$$$$

     RDKit          3D

 35 39  0  0  0  0  0  0  0  0999 V2000
   -5.1503    2.8305    1.2197 C   0  0  0  0  0  0  0  0  0  0  0  0
   -4.9665    2.1172    0.3239 C   0  0  0  0  0  0  0  0  0  0  0  0
   -5.8800    1.3379   -0.0652 O   0  0  0  0  0  0  0  0  0  0  0  0
   -3.7270    1.9502   -0.2811 O   0  0  0  0  0  0  0  0  0  0  0  0
   -3.5360    1.1901   -1.4721 C   0  0  0  0  0  0  0  0  0  0  0  0
   -3.3527   -0.2351   -1.1182 C   0  0  0  0  0  0  0  0  0  0  0  0
   -4.1989   -1.0217   -1.4888 O   0  0  0  0  0  0  0  0  0  0  0  0
   -2.1527   -0.6719   -0.3265 C   0  0  1  0  0  0  0  0  0  0  0  0
   -2.5649   -0.6985    0.9730 O   0  0  0  0  0  0  0  0  0  0  0  0
   -2.6936   -1.9897    1.4058 C   0  0  0  0  0  0  0  0  0  0  0  0
   -2.4267   -2.0116    2.8805 C   0  0  0  0  0  0  0  0  0  0  0  0
   -4.0026   -2.6488    1.1405 C   0  0  0  0  0  0  0  0  0  0  0  0
   -1.6697   -2.6399    0.7662 O   0  0  0  0  0  0  0  0  0  0  0  0
   -2.0419   -2.2818   -0.6672 C   0  0  2  0  0  0  0  0  0  0  0  0
   -0.4540   -2.2572   -1.1367 C   0  0  0  0  0  0  0  0  0  0  0  0
   -0.0556   -1.2383    0.0481 C   0  0  1  0  0  0  0  0  0  0  0  0
    1.3557   -0.6297   -0.6535 C   0  0  2  0  0  0  0  0  0  0  0  0
    2.2130   -1.9271   -0.2305 C   0  0  0  0  0  0  0  0  0  0  0  0
    3.7676   -1.5113   -0.6096 C   0  0  2  0  0  0  0  0  0  0  0  0
    4.1915   -1.5755    0.8491 F   0  0  0  0  0  0  0  0  0  0  0  0
    3.6194    0.1035   -0.5964 C   0  0  0  0  0  0  0  0  0  0  0  0
    4.7983    0.6528   -0.9161 C   0  0  0  0  0  0  0  0  0  0  0  0
    5.3108    1.8174   -0.1622 C   0  0  0  0  0  0  0  0  0  0  0  0
    6.4626    2.2967   -0.3820 O   0  0  0  0  0  0  0  0  0  0  0  0
    5.0017    1.6619    1.2731 C   0  0  0  0  0  0  0  0  0  0  0  0
    3.8286    1.0770    1.5300 C   0  0  0  0  0  0  0  0  0  0  0  0
    2.8505    0.8340    0.4169 C   0  0  1  0  0  0  0  0  0  0  0  0
    2.7564    2.1900   -0.2863 C   0  0  0  0  0  0  0  0  0  0  0  0
    1.7092    0.1347    0.7258 C   0  0  2  0  0  0  0  0  0  0  0  0
    1.6654   -0.7525    1.7561 F   0  0  0  0  0  0  0  0  0  0  0  0
    0.3307    0.8684    1.2015 C   0  0  1  0  0  0  0  0  0  0  0  0
    0.9312    2.2661    1.2641 O   0  0  0  0  0  0  0  0  0  0  0  0
   -0.2953    1.1131   -0.3128 C   0  0  0  0  0  0  0  0  0  0  0  0
   -0.9317   -0.1061   -0.7237 C   0  0  2  0  0  0  0  0  0  0  0  0
   -0.6928   -0.2447   -2.2040 C   0  0  0  0  0  0  0  0  0  0  0  0
  1  2  1  0
  2  3  2  0
  2  4  1  0
  4  5  1  0
  5  6  1  0
  6  7  2  0
  8  6  1  6
  8  9  1  0
  9 10  1  0
 10 11  1  0
 10 12  1  0
 10 13  1  0
 14 13  1  1
 14 15  1  0
 16 15  1  6
 16 17  1  0
 17 18  1  1
 18 19  1  0
 19 20  1  1
 19 21  1  0
 21 22  2  0
 22 23  1  0
 23 24  2  0
 23 25  1  0
 25 26  2  0
 26 27  1  0
 27 28  1  6
 27 29  1  0
 29 30  1  1
 29 31  1  0
 31 32  1  6
 31 33  1  0
 33 34  1  0
 34 35  1  6
 14  8  1  0
 34 16  1  0
 34  8  1  0
 29 17  1  0
 27 21  1  0
M  END
>  <zinc_id>  (318) 
ZINC000003977978

>  <smiles>  (318) 
CC(=O)OCC(=O)[C@@]12OC(C)(C)O[C@@H]1C[C@H]1[C@@H]3C[C@H](F)C4=CC(=O)C=C[C@]4(C)[C@@]3(F)[C@@H](O)C[C@@]12C

$$$$

     RDKit          3D

 26 29  0  0  0  0  0  0  0  0999 V2000
    1.7231   -1.5936   -0.3624 C   0  0  0  0  0  0  0  0  0  0  0  0
    1.6591   -0.3330    0.1934 C   0  0  2  0  0  0  0  0  0  0  0  0
    1.0767   -0.1422    1.5244 C   0  0  0  0  0  0  0  0  0  0  0  0
   -0.3688   -0.5290    1.6284 C   0  0  0  0  0  0  0  0  0  0  0  0
   -0.8633   -0.2267    2.7155 O   0  0  0  0  0  0  0  0  0  0  0  0
   -1.3088    0.1659    0.5089 C   0  0  1  0  0  0  0  0  0  0  0  0
   -0.5043   -0.6783   -0.7361 C   0  0  1  0  0  0  0  0  0  0  0  0
   -1.3739    0.0173   -1.8967 C   0  0  0  0  0  0  0  0  0  0  0  0
   -2.5895   -0.9089   -1.8963 C   0  0  0  0  0  0  0  0  0  0  0  0
   -3.2734   -0.6339   -0.5881 C   0  0  0  0  0  0  0  0  0  0  0  0
   -3.9150    0.5368   -0.5713 C   0  0  0  0  0  0  0  0  0  0  0  0
   -4.1811    1.2890    0.6501 C   0  0  0  0  0  0  0  0  0  0  0  0
   -4.1552    2.5581    0.6587 O   0  0  0  0  0  0  0  0  0  0  0  0
   -3.7480    0.6360    1.8918 C   0  0  0  0  0  0  0  0  0  0  0  0
   -3.2564   -0.6060    1.8612 C   0  0  0  0  0  0  0  0  0  0  0  0
   -2.4901   -0.9639    0.6459 C   0  0  2  0  0  0  0  0  0  0  0  0
   -1.8681   -2.2900    0.6438 C   0  0  0  0  0  0  0  0  0  0  0  0
    0.6599    0.5589   -0.7479 C   0  0  2  0  0  0  0  0  0  0  0  0
    1.4192   -0.0095   -2.0812 C   0  0  0  0  0  0  0  0  0  0  0  0
    2.7760    0.5592   -1.6700 C   0  0  0  0  0  0  0  0  0  0  0  0
    2.8562    0.4449   -0.1647 C   0  0  1  0  0  0  0  0  0  0  0  0
    2.8417    1.6755    0.4794 O   0  0  0  0  0  0  0  0  0  0  0  0
    4.1005   -0.3046    0.1545 C   0  0  0  0  0  0  0  0  0  0  0  0
    4.1997   -1.4385   -0.3034 O   0  0  0  0  0  0  0  0  0  0  0  0
    5.3932    0.4429    0.2612 C   0  0  0  0  0  0  0  0  0  0  0  0
    5.1906    1.7735   -0.1164 O   0  0  0  0  0  0  0  0  0  0  0  0
  2  1  1  6
  2  3  1  0
  3  4  1  0
  4  5  2  0
  6  4  1  1
  6  7  1  0
  7  8  1  6
  8  9  1  0
  9 10  1  0
 10 11  2  0
 11 12  1  0
 12 13  2  0
 12 14  1  0
 14 15  2  0
 15 16  1  0
 16 17  1  1
  7 18  1  0
 18 19  1  6
 19 20  1  0
 20 21  1  0
 21 22  1  1
 21 23  1  0
 23 24  2  0
 23 25  1  0
 25 26  1  0
 18  2  1  0
 21  2  1  0
 16  6  1  0
 16 10  1  0
M  END
>  <zinc_id>  (319) 
ZINC000003875357

>  <smiles>  (319) 
C[C@]12CC(=O)[C@H]3[C@@H](CCC4=CC(=O)C=C[C@@]43C)[C@@H]1CC[C@]2(O)C(=O)CO

$$$$

     RDKit          3D

 23 27  0  0  0  0  0  0  0  0999 V2000
    3.7955    2.9259   -0.1542 N   0  0  0  0  0  0  0  0  0  0  0  0
    3.7026    1.8949    0.0510 C   0  0  0  0  0  0  0  0  0  0  0  0
    3.4299    0.6629    1.0335 C   0  0  2  0  0  0  0  0  0  0  0  0
    4.5003   -0.2797    0.2346 C   0  0  0  0  0  0  0  0  0  0  0  0
    3.9834   -1.6153    1.0109 C   0  0  2  0  0  0  0  0  0  0  0  0
    3.2095   -2.2598   -0.3825 C   0  0  0  0  0  0  0  0  0  0  0  0
    2.3083   -1.3909    0.7966 C   0  0  2  0  0  0  0  0  0  0  0  0
    2.3693    0.0117    0.0706 N   0  0  0  0  0  0  0  0  0  0  0  0
    1.0428    0.5408    0.2673 C   0  0  0  0  0  0  0  0  0  0  0  0
    0.6709    1.1117    1.3076 O   0  0  0  0  0  0  0  0  0  0  0  0
    0.0799    0.6892   -1.0113 C   0  0  1  0  0  0  0  0  0  0  0  0
    0.6217   -0.6556   -1.6518 N   0  0  0  0  0  0  0  0  0  0  0  0
   -1.2606    0.0648   -0.3093 C   0  0  0  0  0  0  0  0  0  0  0  0
   -1.5965   -1.0079   -1.1257 C   0  0  0  0  0  0  0  0  0  0  0  0
   -3.0519   -1.6893   -0.9199 C   0  0  1  0  0  0  0  0  0  0  0  0
   -3.0684   -1.8939    0.6515 C   0  0  0  0  0  0  0  0  0  0  0  0
   -2.5268   -0.8288    1.6930 C   0  0  2  0  0  0  0  0  0  0  0  0
   -3.5503    0.3670    1.2363 C   0  0  0  0  0  0  0  0  0  0  0  0
   -3.4322    0.7484   -0.1174 C   0  0  0  0  0  0  0  0  0  0  0  0
   -4.2130    1.8417   -0.4337 O   0  0  0  0  0  0  0  0  0  0  0  0
   -3.8353   -0.2638   -1.0428 C   0  0  0  0  0  0  0  0  0  0  0  0
   -2.0412    1.3642   -0.2734 C   0  0  0  0  0  0  0  0  0  0  0  0
   -1.1381   -0.3381    0.9933 C   0  0  0  0  0  0  0  0  0  0  0  0
  1  2  3  0
  3  2  1  6
  3  4  1  0
  5  4  1  6
  5  6  1  0
  7  6  1  6
  7  8  1  0
  8  9  1  0
  9 10  2  0
 11  9  1  1
 11 12  1  0
 11 13  1  0
 13 14  1  0
 15 14  1  1
 15 16  1  0
 17 16  1  6
 17 18  1  0
 18 19  1  0
 19 20  1  0
 19 21  1  0
 19 22  1  0
 17 23  1  0
  8  3  1  0
 22 13  1  0
  7  5  1  0
 23 13  1  0
 21 15  1  0
M  END
>  <zinc_id>  (320) 
ZINC000013648755

>  <smiles>  (320) 
N#C[C@@H]1C[C@@H]2C[C@@H]2N1C(=O)[C@@H](N)C12C[C@@H]3C[C@@H](CC(O)(C3)C1)C2

$$$$

     RDKit          3D

 51 55  0  0  0  0  0  0  0  0999 V2000
    7.2141    4.6795    0.9168 C   0  0  0  0  0  0  0  0  0  0  0  0
    6.2107    5.5935    0.4137 C   0  0  0  0  0  0  0  0  0  0  0  0
    6.3989    5.8761   -1.0585 C   0  0  0  0  0  0  0  0  0  0  0  0
    6.6182    4.5786   -1.7781 C   0  0  0  0  0  0  0  0  0  0  0  0
    5.3603    3.8305   -2.0025 C   0  0  0  0  0  0  0  0  0  0  0  0
    5.1107    3.3570   -3.1455 O   0  0  0  0  0  0  0  0  0  0  0  0
    4.4331    3.5533   -1.0128 O   0  0  0  0  0  0  0  0  0  0  0  0
    3.8572    2.2659   -1.0115 C   0  0  0  0  0  0  0  0  0  0  0  0
    2.4287    2.2845   -1.4741 C   0  0  0  0  0  0  0  0  0  0  0  0
    2.1446    3.2239   -2.2171 O   0  0  0  0  0  0  0  0  0  0  0  0
    1.4735    2.0595   -0.3477 C   0  0  2  0  0  0  0  0  0  0  0  0
    1.6471    3.1891    0.4799 O   0  0  0  0  0  0  0  0  0  0  0  0
    1.9326    0.9268    0.5265 C   0  0  0  0  0  0  0  0  0  0  0  0
    1.4242   -0.2836   -0.1800 C   0  0  0  0  0  0  0  0  0  0  0  0
    2.2694   -1.3422   -0.2703 C   0  0  0  0  0  0  0  0  0  0  0  0
    3.6608   -1.2565   -0.1856 O   0  0  0  0  0  0  0  0  0  0  0  0
    1.7454   -2.5928   -0.4508 C   0  0  0  0  0  0  0  0  0  0  0  0
    0.3699   -2.7179   -0.5507 C   0  0  0  0  0  0  0  0  0  0  0  0
   -0.4169   -1.5850   -0.7370 C   0  0  0  0  0  0  0  0  0  0  0  0
   -1.5466   -1.7891   -1.5153 O   0  0  0  0  0  0  0  0  0  0  0  0
    0.0498   -0.3188   -0.3859 C   0  0  0  0  0  0  0  0  0  0  0  0
   -0.4057    0.7890   -1.5452 C   0  0  1  0  0  0  0  0  0  0  0  0
   -1.8723    0.9021   -1.0299 O   0  0  0  0  0  0  0  0  0  0  0  0
   -1.5655    1.0329    0.5004 C   0  0  2  0  0  0  0  0  0  0  0  0
   -3.1173    0.4061    0.8718 C   0  0  0  0  0  0  0  0  0  0  0  0
   -3.9830    1.7786    0.5694 C   0  0  1  0  0  0  0  0  0  0  0  0
   -5.3406    1.0994    1.0018 N   0  0  0  0  0  0  0  0  0  0  0  0
   -6.3284    1.9986    1.4617 C   0  0  0  0  0  0  0  0  0  0  0  0
   -5.9301    2.8697    2.2975 O   0  0  0  0  0  0  0  0  0  0  0  0
   -7.6363    2.2900    0.8634 C   0  0  0  0  0  0  0  0  0  0  0  0
   -8.1821    1.2755    0.1375 F   0  0  0  0  0  0  0  0  0  0  0  0
   -8.4668    2.6508    1.9240 F   0  0  0  0  0  0  0  0  0  0  0  0
   -7.5795    3.4352    0.0671 F   0  0  0  0  0  0  0  0  0  0  0  0
   -3.8262    2.4811    2.1577 C   0  0  1  0  0  0  0  0  0  0  0  0
   -3.6912    1.1766    2.9005 O   0  0  0  0  0  0  0  0  0  0  0  0
   -2.1112    2.8372    1.9923 C   0  0  1  0  0  0  0  0  0  0  0  0
   -1.5571    1.3807    2.6015 C   0  0  0  0  0  0  0  0  0  0  0  0
   -2.0579    2.5165    0.4969 O   0  0  0  0  0  0  0  0  0  0  0  0
    0.0684    2.1360   -0.6626 C   0  0  0  0  0  0  0  0  0  0  0  0
   -0.1853   -4.0527   -0.4932 C   0  0  0  0  0  0  0  0  0  0  0  0
   -1.4251   -4.1651   -0.5999 O   0  0  0  0  0  0  0  0  0  0  0  0
    0.6672   -5.1855   -0.1189 C   0  0  0  0  0  0  0  0  0  0  0  0
    0.1233   -6.3727    0.3021 C   0  0  0  0  0  0  0  0  0  0  0  0
   -1.1656   -6.6534   -0.1499 O   0  0  0  0  0  0  0  0  0  0  0  0
   -1.2633   -7.2974   -1.4187 C   0  0  0  0  0  0  0  0  0  0  0  0
    0.8812   -7.2803    1.0172 C   0  0  0  0  0  0  0  0  0  0  0  0
    2.2232   -7.0570    1.3047 C   0  0  0  0  0  0  0  0  0  0  0  0
    2.8170   -6.0428    0.5648 C   0  0  0  0  0  0  0  0  0  0  0  0
    2.0522   -5.0794   -0.0819 C   0  0  0  0  0  0  0  0  0  0  0  0
    2.6135   -3.7744   -0.4396 C   0  0  0  0  0  0  0  0  0  0  0  0
    3.8588   -3.6275   -0.5061 O   0  0  0  0  0  0  0  0  0  0  0  0
  1  2  1  0
  2  3  1  0
  3  4  1  0
  4  5  1  0
  5  6  2  0
  5  7  1  0
  7  8  1  0
  8  9  1  0
  9 10  2  0
 11  9  1  6
 11 12  1  0
 11 13  1  0
 13 14  1  0
 14 15  2  0
 15 16  1  0
 15 17  1  0
 17 18  2  0
 18 19  1  0
 19 20  1  0
 19 21  2  0
 21 22  1  0
 22 23  1  1
 24 23  1  6
 24 25  1  0
 25 26  1  0
 26 27  1  1
 27 28  1  0
 28 29  2  0
 28 30  1  0
 30 31  1  0
 30 32  1  0
 30 33  1  0
 26 34  1  0
 34 35  1  1
 34 36  1  0
 36 37  1  1
 36 38  1  0
 22 39  1  0
 18 40  1  0
 40 41  2  0
 40 42  1  0
 42 43  2  0
 43 44  1  0
 44 45  1  0
 43 46  1  0
 46 47  2  0
 47 48  1  0
 48 49  2  0
 49 50  1  0
 50 51  2  0
 39 11  1  0
 49 42  1  0
 21 14  1  0
 38 24  1  0
 50 17  1  0
M  END
>  <zinc_id>  (321) 
ZINC000011616852

>  <smiles>  (321) 
CCCCC(=O)OCC(=O)[C@]1(O)Cc2c(O)c3c(c(O)c2[C@@H](O[C@@H]2C[C@@H](NC(=O)C(F)(F)F)[C@@H](O)[C@@H](C)O2)C1)C(=O)c1c(OC)cccc1C3=O

$$$$

     RDKit          3D

 16 16  0  0  0  0  0  0  0  0999 V2000
    3.9542   -0.1890   -2.2789 C   0  0  0  0  0  0  0  0  0  0  0  0
    3.4569    1.0497   -1.5837 C   0  0  0  0  0  0  0  0  0  0  0  0
    2.8692    0.5668    0.0310 S   0  0  0  0  0  0  0  0  0  0  0  0
    3.6063    1.3608    1.0818 O   0  0  0  0  0  0  0  0  0  0  0  0
    3.1539   -0.8889    0.3057 O   0  0  0  0  0  0  0  0  0  0  0  0
    1.1420    0.9349    0.2281 C   0  0  0  0  0  0  0  0  0  0  0  0
    0.2597   -0.1067   -0.4103 C   0  0  0  0  0  0  0  0  0  0  0  0
   -0.9094   -0.3039    0.4147 N   0  0  0  0  0  0  0  0  0  0  0  0
   -0.9497   -1.1152    1.4986 C   0  0  0  0  0  0  0  0  0  0  0  0
    0.0958   -2.1016    1.9005 C   0  0  0  0  0  0  0  0  0  0  0  0
   -2.2197   -1.1832    1.9578 N   0  0  0  0  0  0  0  0  0  0  0  0
   -3.0296   -0.5805    1.0853 C   0  0  0  0  0  0  0  0  0  0  0  0
   -2.1933   -0.0774    0.1054 C   0  0  0  0  0  0  0  0  0  0  0  0
   -2.6810    0.6544   -1.0238 N   0  0  0  0  0  0  0  0  0  0  0  0
   -3.4825    0.0264   -1.7612 O   0  0  0  0  0  0  0  0  0  0  0  0
   -3.0729    1.9533   -0.7390 O   0  0  0  0  0  0  0  0  0  0  0  0
  1  2  1  0
  2  3  1  0
  3  4  2  0
  3  5  2  0
  3  6  1  0
  6  7  1  0
  7  8  1  0
  8  9  1  0
  9 10  1  0
  9 11  2  0
 11 12  1  0
 12 13  2  0
 13 14  1  0
 14 15  2  0
 14 16  1  0
 13  8  1  0
M  CHG  2  14   1  16  -1
M  END
>  <zinc_id>  (322) 
ZINC000000113446

>  <smiles>  (322) 
CCS(=O)(=O)CCn1c([N+](=O)[O-])cnc1C

$$$$

     RDKit          3D

 51 53  0  0  0  0  0  0  0  0999 V2000
    7.3912   -3.4508    1.7753 C   0  0  0  0  0  0  0  0  0  0  0  0
    7.0558   -2.2936    1.2067 O   0  0  0  0  0  0  0  0  0  0  0  0
    6.5225   -1.2670    1.9541 C   0  0  0  0  0  0  0  0  0  0  0  0
    6.2595   -1.5335    3.1646 O   0  0  0  0  0  0  0  0  0  0  0  0
    6.0715   -0.0325    1.4338 N   0  0  0  0  0  0  0  0  0  0  0  0
    4.7656    0.5032    2.1361 C   0  0  2  0  0  0  0  0  0  0  0  0
    4.1891    1.1007    0.7572 C   0  0  0  0  0  0  0  0  0  0  0  0
    4.8772    1.8547    0.0863 O   0  0  0  0  0  0  0  0  0  0  0  0
    3.5036    0.1402   -0.0612 N   0  0  0  0  0  0  0  0  0  0  0  0
    2.2772    0.8966   -0.6605 C   0  0  1  0  0  0  0  0  0  0  0  0
    2.7520    0.6005   -2.1893 C   0  0  0  0  0  0  0  0  0  0  0  0
    2.3395    1.8481   -2.9013 C   0  0  0  0  0  0  0  0  0  0  0  0
    1.0186    2.1723   -3.1287 C   0  0  0  0  0  0  0  0  0  0  0  0
    0.6768    3.2025   -3.9947 C   0  0  0  0  0  0  0  0  0  0  0  0
    1.6457    3.8106   -4.7785 C   0  0  0  0  0  0  0  0  0  0  0  0
    2.9623    3.6843   -4.3623 C   0  0  0  0  0  0  0  0  0  0  0  0
    3.2806    2.7326   -3.4071 C   0  0  0  0  0  0  0  0  0  0  0  0
    1.3350   -0.5349   -0.6287 C   0  0  1  0  0  0  0  0  0  0  0  0
    1.4288   -0.6207    0.8751 O   0  0  0  0  0  0  0  0  0  0  0  0
   -0.0673    0.3084   -0.5238 C   0  0  0  0  0  0  0  0  0  0  0  0
   -0.9761   -0.7616   -0.2579 N   0  0  0  0  0  0  0  0  0  0  0  0
   -1.3654   -0.9586    1.0883 C   0  0  0  0  0  0  0  0  0  0  0  0
   -2.5107   -0.0975    1.4178 C   0  0  0  0  0  0  0  0  0  0  0  0
   -3.8042   -0.5659    1.6077 C   0  0  0  0  0  0  0  0  0  0  0  0
   -4.7820    0.3345    2.0057 C   0  0  0  0  0  0  0  0  0  0  0  0
   -4.4379    1.6515    2.2584 C   0  0  0  0  0  0  0  0  0  0  0  0
   -5.1365    2.3996    3.3118 C   0  0  0  0  0  0  0  0  0  0  0  0
   -6.3667    1.9500    3.7244 C   0  0  0  0  0  0  0  0  0  0  0  0
   -6.8755    2.2521    4.9779 C   0  0  0  0  0  0  0  0  0  0  0  0
   -6.0963    2.9767    5.8599 C   0  0  0  0  0  0  0  0  0  0  0  0
   -4.8492    3.3548    5.4370 C   0  0  0  0  0  0  0  0  0  0  0  0
   -4.3512    2.9554    4.2578 N   0  0  0  0  0  0  0  0  0  0  0  0
   -3.2847    2.1436    1.6662 C   0  0  0  0  0  0  0  0  0  0  0  0
   -2.4180    1.2421    1.0600 C   0  0  0  0  0  0  0  0  0  0  0  0
   -1.7880   -1.1619   -1.2387 N   0  0  0  0  0  0  0  0  0  0  0  0
   -2.0260   -2.3912   -1.8464 C   0  0  0  0  0  0  0  0  0  0  0  0
   -0.9793   -3.1145   -1.7449 O   0  0  0  0  0  0  0  0  0  0  0  0
   -2.3714   -2.3825   -3.4274 C   0  0  1  0  0  0  0  0  0  0  0  0
   -3.1474   -3.7521   -3.3327 N   0  0  0  0  0  0  0  0  0  0  0  0
   -2.3427   -4.8733   -2.9770 C   0  0  0  0  0  0  0  0  0  0  0  0
   -1.3785   -5.0341   -3.7870 O   0  0  0  0  0  0  0  0  0  0  0  0
   -2.9335   -6.0771   -2.5738 O   0  0  0  0  0  0  0  0  0  0  0  0
   -2.0571   -6.9576   -1.8790 C   0  0  0  0  0  0  0  0  0  0  0  0
   -3.7373   -1.4926   -3.2765 C   0  0  0  0  0  0  0  0  0  0  0  0
   -3.3800   -0.1167   -2.8708 C   0  0  0  0  0  0  0  0  0  0  0  0
   -4.7589   -2.1804   -2.5017 C   0  0  0  0  0  0  0  0  0  0  0  0
   -4.1276   -1.3513   -4.7476 C   0  0  0  0  0  0  0  0  0  0  0  0
    5.4152    1.9299    2.6177 C   0  0  0  0  0  0  0  0  0  0  0  0
    5.6267    1.7549    4.1162 C   0  0  0  0  0  0  0  0  0  0  0  0
    4.3152    2.9624    2.4092 C   0  0  0  0  0  0  0  0  0  0  0  0
    6.6398    2.2397    1.8921 C   0  0  0  0  0  0  0  0  0  0  0  0
  1  2  1  0
  2  3  1  0
  3  4  2  0
  3  5  1  0
  6  5  1  6
  6  7  1  0
  7  8  2  0
  7  9  1  0
 10  9  1  1
 10 11  1  0
 11 12  1  0
 12 13  2  0
 13 14  1  0
 14 15  2  0
 15 16  1  0
 16 17  2  0
 10 18  1  0
 18 19  1  1
 18 20  1  0
 20 21  1  0
 21 22  1  0
 22 23  1  0
 23 24  2  0
 24 25  1  0
 25 26  2  0
 26 27  1  0
 27 28  2  0
 28 29  1  0
 29 30  2  0
 30 31  1  0
 31 32  2  0
 26 33  1  0
 33 34  2  0
 21 35  1  0
 35 36  1  0
 36 37  2  0
 38 36  1  1
 38 39  1  0
 39 40  1  0
 40 41  2  0
 40 42  1  0
 42 43  1  0
 38 44  1  0
 44 45  1  0
 44 46  1  0
 44 47  1  0
  6 48  1  0
 48 49  1  0
 48 50  1  0
 48 51  1  0
 17 12  1  0
 34 23  1  0
 32 27  1  0
M  END
>  <zinc_id>  (323) 
ZINC000003941496

>  <smiles>  (323) 
COC(=O)N[C@H](C(=O)N[C@@H](Cc1ccccc1)[C@@H](O)CN(Cc1ccc(-c2ccccn2)cc1)NC(=O)[C@@H](NC(=O)OC)C(C)(C)C)C(C)(C)C

$$$$

     RDKit          3D

 22 26  0  0  0  0  0  0  0  0999 V2000
   -3.8694   -0.4423    1.6495 C   0  0  0  0  0  0  0  0  0  0  0  0
   -3.6958   -0.2883    0.2937 O   0  0  0  0  0  0  0  0  0  0  0  0
   -2.5696   -0.8482   -0.3348 C   0  0  0  0  0  0  0  0  0  0  0  0
   -2.3017   -2.2178   -0.2387 C   0  0  0  0  0  0  0  0  0  0  0  0
   -0.9952   -2.6826   -0.0570 C   0  0  0  0  0  0  0  0  0  0  0  0
   -0.0418   -1.7130    0.0152 C   0  0  0  0  0  0  0  0  0  0  0  0
   -0.2933   -0.5636   -0.7428 C   0  0  0  0  0  0  0  0  0  0  0  0
   -1.5729   -0.0138   -0.8507 C   0  0  0  0  0  0  0  0  0  0  0  0
   -1.4074    1.3311   -0.7863 O   0  0  0  0  0  0  0  0  0  0  0  0
   -0.0208    1.6645   -1.3334 C   0  0  1  0  0  0  0  0  0  0  0  0
    0.4381    2.7674   -0.0819 C   0  0  1  0  0  0  0  0  0  0  0  0
   -0.5825    3.7711   -0.5554 O   0  0  0  0  0  0  0  0  0  0  0  0
   -0.5428    2.2131    1.1020 C   0  0  0  0  0  0  0  0  0  0  0  0
   -0.1474    0.7437    1.3657 C   0  0  0  0  0  0  0  0  0  0  0  0
    1.3202    0.8071    0.6617 C   0  0  1  0  0  0  0  0  0  0  0  0
    1.8596   -0.6743    1.2927 C   0  0  1  0  0  0  0  0  0  0  0  0
    1.3926   -1.7650    0.1876 C   0  0  0  0  0  0  0  0  0  0  0  0
    3.2471   -0.4612    0.5865 N   0  0  0  0  0  0  0  0  0  0  0  0
    3.9194   -1.7213    0.8978 C   0  0  0  0  0  0  0  0  0  0  0  0
    3.1161   -0.4306   -0.8002 C   0  0  0  0  0  0  0  0  0  0  0  0
    1.9963    0.1664   -1.5140 C   0  0  0  0  0  0  0  0  0  0  0  0
    0.7513    0.3576   -0.7570 C   0  0  1  0  0  0  0  0  0  0  0  0
  1  2  1  0
  2  3  1  0
  3  4  2  0
  4  5  1  0
  5  6  2  0
  6  7  1  0
  7  8  2  0
  8  9  1  0
 10  9  1  1
 10 11  1  0
 11 12  1  6
 11 13  1  0
 13 14  1  0
 15 14  1  1
 15 16  1  0
 16 17  1  6
 16 18  1  0
 18 19  1  0
 18 20  1  0
 20 21  1  0
 22 21  1  6
  8  3  1  0
 22 10  1  0
 17  6  1  0
 22  7  1  0
 22 15  1  0
M  END
>  <zinc_id>  (324) 
ZINC000004215736

>  <smiles>  (324) 
COc1ccc2c3c1O[C@H]1[C@@H](O)CC[C@H]4[C@@H](C2)N(C)CC[C@]314

$$$$

     RDKit          3D

  7  6  0  0  0  0  0  0  0  0999 V2000
    1.3992    1.1664    0.6925 O   0  0  0  0  0  0  0  0  0  0  0  0
    1.0356    0.2411   -0.0941 C   0  0  0  0  0  0  0  0  0  0  0  0
    1.9879   -0.7485   -0.3480 O   0  0  0  0  0  0  0  0  0  0  0  0
   -0.7029   -0.1528   -0.0945 P   0  0  0  0  0  0  0  0  0  0  0  0
   -1.0581   -1.1611   -1.1581 O   0  0  0  0  0  0  0  0  0  0  0  0
   -1.5028    1.2981   -0.4426 O   0  0  0  0  0  0  0  0  0  0  0  0
   -1.1588   -0.6431    1.4447 O   0  0  0  0  0  0  0  0  0  0  0  0
  1  2  2  0
  2  3  1  0
  2  4  1  0
  4  5  2  0
  4  6  1  0
  4  7  1  0
M  END
>  <zinc_id>  (325) 
ZINC000008101109

>  <smiles>  (325) 
O=C(O)P(=O)(O)O

$$$$

     RDKit          3D

 12 12  0  0  0  0  0  0  0  0999 V2000
   -4.1323   -0.5029   -0.5357 C   0  0  0  0  0  0  0  0  0  0  0  0
   -3.5833    0.6476    0.2900 C   0  0  0  0  0  0  0  0  0  0  0  0
   -2.2309    0.4158    0.6765 O   0  0  0  0  0  0  0  0  0  0  0  0
   -1.1853    0.5887   -0.2354 C   0  0  0  0  0  0  0  0  0  0  0  0
   -1.2935    1.5493   -1.0221 O   0  0  0  0  0  0  0  0  0  0  0  0
    0.0080   -0.1986   -0.0251 C   0  0  0  0  0  0  0  0  0  0  0  0
    0.6683   -0.8810   -1.0398 C   0  0  0  0  0  0  0  0  0  0  0  0
    2.0536   -0.9157   -1.0675 C   0  0  0  0  0  0  0  0  0  0  0  0
    2.8008   -0.4824    0.0162 C   0  0  0  0  0  0  0  0  0  0  0  0
    4.0874    0.1184   -0.1774 N   0  0  0  0  0  0  0  0  0  0  0  0
    2.0832   -0.3153    1.1943 C   0  0  0  0  0  0  0  0  0  0  0  0
    0.7239   -0.0239    1.1548 C   0  0  0  0  0  0  0  0  0  0  0  0
  1  2  1  0
  2  3  1  0
  3  4  1  0
  4  5  2  0
  4  6  1  0
  6  7  2  0
  7  8  1  0
  8  9  2  0
  9 10  1  0
  9 11  1  0
 11 12  2  0
 12  6  1  0
M  END
>  <zinc_id>  (326) 
ZINC000012358719

>  <smiles>  (326) 
CCOC(=O)c1ccc(N)cc1

$$$$

     RDKit          3D

 32 35  0  0  0  0  0  0  0  0999 V2000
   -7.9206    1.1225   -0.8863 C   0  0  0  0  0  0  0  0  0  0  0  0
   -6.8105    0.4520   -1.6607 C   0  0  0  0  0  0  0  0  0  0  0  0
   -6.9890   -1.0549   -1.5835 C   0  0  0  0  0  0  0  0  0  0  0  0
   -5.5083    0.8243   -1.1705 N   0  0  0  0  0  0  0  0  0  0  0  0
   -5.1579    0.9135    0.1916 C   0  0  0  0  0  0  0  0  0  0  0  0
   -6.0564    1.4513    1.1002 C   0  0  0  0  0  0  0  0  0  0  0  0
   -5.7888    1.2324    2.4379 C   0  0  0  0  0  0  0  0  0  0  0  0
   -4.7346    0.4043    2.8020 C   0  0  0  0  0  0  0  0  0  0  0  0
   -3.7377    0.1574    1.9181 N   0  0  0  0  0  0  0  0  0  0  0  0
   -3.9419    0.3869    0.5988 C   0  0  0  0  0  0  0  0  0  0  0  0
   -2.8469    0.5129   -0.3139 N   0  0  0  0  0  0  0  0  0  0  0  0
   -2.7366   -0.3965   -1.4287 C   0  0  0  0  0  0  0  0  0  0  0  0
   -1.3665   -1.0556   -1.4359 C   0  0  0  0  0  0  0  0  0  0  0  0
   -0.8915   -1.2978   -0.0766 N   0  0  0  0  0  0  0  0  0  0  0  0
    0.0795   -2.3241    0.1602 C   0  0  0  0  0  0  0  0  0  0  0  0
    0.0045   -3.3277   -0.6115 O   0  0  0  0  0  0  0  0  0  0  0  0
    1.3926   -1.9755    0.7190 C   0  0  0  0  0  0  0  0  0  0  0  0
    1.8181   -0.7367    1.1849 C   0  0  0  0  0  0  0  0  0  0  0  0
    3.1650   -0.5703    0.8860 C   0  0  0  0  0  0  0  0  0  0  0  0
    3.9872    0.5323    0.6896 C   0  0  0  0  0  0  0  0  0  0  0  0
    5.0310    0.4197   -0.2205 C   0  0  0  0  0  0  0  0  0  0  0  0
    5.6426    1.5699   -0.7983 N   0  0  0  0  0  0  0  0  0  0  0  0
    7.0148    2.2112    0.0501 S   0  0  0  0  0  0  0  0  0  0  0  0
    6.5998    2.2092    1.7741 C   0  0  0  0  0  0  0  0  0  0  0  0
    8.1434    1.2344   -0.1799 O   0  0  0  0  0  0  0  0  0  0  0  0
    7.4054    3.5593   -0.4439 O   0  0  0  0  0  0  0  0  0  0  0  0
    5.5646   -0.8553   -0.3553 C   0  0  0  0  0  0  0  0  0  0  0  0
    4.9118   -1.9623    0.1654 C   0  0  0  0  0  0  0  0  0  0  0  0
    3.6071   -1.8622    0.6305 C   0  0  0  0  0  0  0  0  0  0  0  0
    2.5348   -2.6910    0.6085 N   0  0  0  0  0  0  0  0  0  0  0  0
   -0.8063   -0.1173    0.7784 C   0  0  0  0  0  0  0  0  0  0  0  0
   -1.6089    1.0340    0.2407 C   0  0  0  0  0  0  0  0  0  0  0  0
  1  2  1  0
  2  3  1  0
  2  4  1  0
  4  5  1  0
  5  6  2  0
  6  7  1  0
  7  8  2  0
  8  9  1  0
  9 10  2  0
 10 11  1  0
 11 12  1  0
 12 13  1  0
 13 14  1  0
 14 15  1  0
 15 16  2  0
 15 17  1  0
 17 18  2  0
 18 19  1  0
 19 20  2  0
 20 21  1  0
 21 22  1  0
 22 23  1  0
 23 24  1  0
 23 25  2  0
 23 26  2  0
 21 27  2  0
 27 28  1  0
 28 29  2  0
 29 30  1  0
 14 31  1  0
 31 32  1  0
 10  5  1  0
 32 11  1  0
 30 17  1  0
 29 19  1  0
M  END
>  <zinc_id>  (327) 
ZINC000018516586

>  <smiles>  (327) 
CC(C)Nc1cccnc1N1CCN(C(=O)c2cc3cc(NS(C)(=O)=O)ccc3[nH]2)CC1

$$$$

     RDKit          3D

 13 12  0  0  0  0  0  0  0  0999 V2000
   -0.0172    3.0061    1.8447 N   0  0  0  0  0  0  0  0  0  0  0  0
   -0.2702    2.4258    0.5255 C   0  0  0  0  0  0  0  0  0  0  0  0
    0.6992    1.2898    0.3917 C   0  0  0  0  0  0  0  0  0  0  0  0
    0.2081    0.1757   -0.4924 C   0  0  0  0  0  0  0  0  0  0  0  0
    0.2225    0.5638   -1.8257 O   0  0  0  0  0  0  0  0  0  0  0  0
   -1.4899   -0.2977   -0.0314 P   0  0  0  0  0  0  0  0  0  0  0  0
   -1.8717   -1.5238   -0.8233 O   0  0  0  0  0  0  0  0  0  0  0  0
   -1.6037   -0.5270    1.6292 O   0  0  0  0  0  0  0  0  0  0  0  0
   -2.5292    0.9363   -0.4883 O   0  0  0  0  0  0  0  0  0  0  0  0
    1.3524   -1.2207   -0.2321 P   0  0  0  0  0  0  0  0  0  0  0  0
    0.7091   -2.2718    0.6567 O   0  0  0  0  0  0  0  0  0  0  0  0
    2.7681   -0.7048    0.5586 O   0  0  0  0  0  0  0  0  0  0  0  0
    1.8226   -1.8517   -1.7132 O   0  0  0  0  0  0  0  0  0  0  0  0
  1  2  1  0
  2  3  1  0
  3  4  1  0
  4  5  1  0
  4  6  1  0
  6  7  2  0
  6  8  1  0
  6  9  1  0
  4 10  1  0
 10 11  2  0
 10 12  1  0
 10 13  1  0
M  END
>  <zinc_id>  (328) 
ZINC000003812862

>  <smiles>  (328) 
NCCC(O)(P(=O)(O)O)P(=O)(O)O

$$$$

     RDKit          3D

 11 10  0  0  0  0  0  0  0  0999 V2000
    1.9711   -0.8288   -0.7635 C   0  0  0  0  0  0  0  0  0  0  0  0
    1.8947   -0.7023   -0.6028 C   0  0  0  0  0  0  0  0  0  0  0  0
    2.8982   -0.6963    0.5514 C   0  0  0  0  0  0  0  0  0  0  0  0
    1.3195    0.6393   -0.9013 C   0  0  0  0  0  0  0  0  0  0  0  0
   -0.2936    0.6226   -0.6668 C   0  0  2  0  0  0  0  0  0  0  0  0
   -0.1913    1.8426    0.4198 C   0  0  0  0  0  0  0  0  0  0  0  0
   -0.8579    2.9673   -0.1747 N   0  0  0  0  0  0  0  0  0  0  0  0
   -0.2991   -0.5204    0.5000 C   0  0  0  0  0  0  0  0  0  0  0  0
   -1.7350   -0.9289    0.4877 C   0  0  0  0  0  0  0  0  0  0  0  0
   -2.3832   -1.0997   -0.5495 O   0  0  0  0  0  0  0  0  0  0  0  0
   -2.3235   -1.2955    1.6997 O   0  0  0  0  0  0  0  0  0  0  0  0
  1  2  1  0
  2  3  1  0
  2  4  1  0
  5  4  1  6
  5  6  1  0
  6  7  1  0
  5  8  1  0
  8  9  1  0
  9 10  2  0
  9 11  1  0
M  END
>  <zinc_id>  (329) 
ZINC000000005152

>  <smiles>  (329) 
CC(C)C[C@H](CN)CC(=O)O

$$$$

     RDKit          3D

 23 27  0  0  0  0  0  0  0  0999 V2000
   -2.3391    2.9113    0.5430 N   0  0  0  0  0  0  0  0  0  0  0  0
   -2.2747    1.8024    0.4059 C   0  0  0  0  0  0  0  0  0  0  0  0
   -3.2265    0.6747   -0.2218 C   0  0  2  0  0  0  0  0  0  0  0  0
   -3.2315   -0.1776    1.1919 C   0  0  0  0  0  0  0  0  0  0  0  0
   -4.0346   -1.3992    0.4709 C   0  0  2  0  0  0  0  0  0  0  0  0
   -2.6920   -2.4597    0.3133 C   0  0  0  0  0  0  0  0  0  0  0  0
   -3.1445   -1.4290   -0.9827 C   0  0  2  0  0  0  0  0  0  0  0  0
   -2.0914   -0.3184   -0.5829 N   0  0  0  0  0  0  0  0  0  0  0  0
   -0.9861   -0.5147   -1.2922 C   0  0  0  0  0  0  0  0  0  0  0  0
   -0.7681   -0.4889   -2.5114 O   0  0  0  0  0  0  0  0  0  0  0  0
    0.0278   -1.4461   -0.4117 C   0  0  1  0  0  0  0  0  0  0  0  0
    0.4696   -2.3997   -1.6015 N   0  0  0  0  0  0  0  0  0  0  0  0
    1.2573   -0.4290   -0.4750 C   0  0  0  0  0  0  0  0  0  0  0  0
    2.5658   -0.7270   -1.1094 C   0  0  0  0  0  0  0  0  0  0  0  0
    2.6198    0.4936   -0.0017 C   0  0  2  0  0  0  0  0  0  0  0  0
    3.1600    1.7744   -0.7980 C   0  0  0  0  0  0  0  0  0  0  0  0
    1.6675    2.1397   -0.0942 C   0  0  2  0  0  0  0  0  0  0  0  0
    1.8112    1.5639    1.4223 C   0  0  0  0  0  0  0  0  0  0  0  0
    2.4529    0.2757    1.6407 C   0  0  0  0  0  0  0  0  0  0  0  0
    2.4960   -0.0488    2.9704 O   0  0  0  0  0  0  0  0  0  0  0  0
    3.8795    0.0782    0.9342 C   0  0  0  0  0  0  0  0  0  0  0  0
    1.5114   -0.7973    1.0286 C   0  0  0  0  0  0  0  0  0  0  0  0
    0.8697    0.9217   -0.8387 C   0  0  0  0  0  0  0  0  0  0  0  0
  1  2  3  0
  3  2  1  1
  3  4  1  0
  5  4  1  1
  5  6  1  0
  7  6  1  1
  7  8  1  0
  8  9  1  0
  9 10  2  0
 11  9  1  6
 11 12  1  0
 11 13  1  0
 13 14  1  0
 15 14  1  6
 15 16  1  0
 17 16  1  6
 17 18  1  0
 18 19  1  0
 19 20  1  0
 19 21  1  0
 19 22  1  0
 17 23  1  0
  8  3  1  0
 22 13  1  0
  7  5  1  0
 23 13  1  0
 21 15  1  0
M  END
>  <zinc_id>  (330) 
ZINC000100037885

>  <smiles>  (330) 
N#C[C@@H]1C[C@@H]2C[C@@H]2N1C(=O)[C@@H](N)C12C[C@@H]3C[C@H](CC(O)(C3)C1)C2

$$$$

     RDKit          3D

 67 72  0  0  0  0  0  0  0  0999 V2000
    9.0823   -3.1229   -1.1657 C   0  0  0  0  0  0  0  0  0  0  0  0
    9.8294   -2.6166   -1.9396 O   0  0  0  0  0  0  0  0  0  0  0  0
    9.5007   -1.4459   -2.6331 C   0  0  0  0  0  0  0  0  0  0  0  0
    8.3360   -1.3370   -3.3851 C   0  0  0  0  0  0  0  0  0  0  0  0
    7.6103   -0.1505   -3.3060 C   0  0  0  0  0  0  0  0  0  0  0  0
    7.9875    0.8376   -2.3925 C   0  0  0  0  0  0  0  0  0  0  0  0
    6.9629    1.7683   -2.0879 C   0  0  0  0  0  0  0  0  0  0  0  0
    7.1581    2.3771   -0.5423 C   0  0  2  0  0  0  0  0  0  0  0  0
    8.0914    1.1385    0.0132 C   0  0  0  0  0  0  0  0  0  0  0  0
    9.0380    1.8222    0.7827 C   0  0  0  0  0  0  0  0  0  0  0  0
    9.7149    1.2603    1.8350 C   0  0  0  0  0  0  0  0  0  0  0  0
   10.7176    1.9390    2.5369 O   0  0  0  0  0  0  0  0  0  0  0  0
   11.7509    2.5279    1.7534 C   0  0  0  0  0  0  0  0  0  0  0  0
    9.1039    0.1606    2.4210 C   0  0  0  0  0  0  0  0  0  0  0  0
    9.6092   -0.3463    3.6186 O   0  0  0  0  0  0  0  0  0  0  0  0
   10.5493   -1.4085    3.4743 C   0  0  0  0  0  0  0  0  0  0  0  0
    8.1656   -0.5286    1.6628 C   0  0  0  0  0  0  0  0  0  0  0  0
    7.5339    0.0755    0.5777 C   0  0  0  0  0  0  0  0  0  0  0  0
    6.2164   -0.5540    0.2494 C   0  0  0  0  0  0  0  0  0  0  0  0
    5.5862    0.5141   -0.6344 C   0  0  0  0  0  0  0  0  0  0  0  0
    5.7705    1.7505   -0.0354 N   0  0  1  0  0  0  0  0  0  0  0  0
    5.7689    1.8678    1.3771 C   0  0  0  0  0  0  0  0  0  0  0  0
    4.8317    2.7606   -0.5292 C   0  0  0  0  0  0  0  0  0  0  0  0
    3.8245    3.0801    0.5695 C   0  0  0  0  0  0  0  0  0  0  0  0
    2.6875    2.1270    0.4666 C   0  0  0  0  0  0  0  0  0  0  0  0
    2.1870    1.9740   -0.6870 O   0  0  0  0  0  0  0  0  0  0  0  0
    1.8436    1.8437    1.5369 O   0  0  0  0  0  0  0  0  0  0  0  0
    0.4350    1.7575    1.3361 C   0  0  0  0  0  0  0  0  0  0  0  0
   -0.2408    0.8747    2.3416 C   0  0  0  0  0  0  0  0  0  0  0  0
    0.2164   -0.5565    2.2942 C   0  0  0  0  0  0  0  0  0  0  0  0
   -0.4278   -1.3592    1.2020 C   0  0  0  0  0  0  0  0  0  0  0  0
   -0.6233   -0.4638    0.0118 C   0  0  0  0  0  0  0  0  0  0  0  0
   -1.9337   -0.7024   -0.4755 O   0  0  0  0  0  0  0  0  0  0  0  0
   -2.3248   -2.0286   -0.5892 C   0  0  0  0  0  0  0  0  0  0  0  0
   -2.1394   -2.7526    0.4346 O   0  0  0  0  0  0  0  0  0  0  0  0
   -3.5414   -2.2796   -1.4230 C   0  0  0  0  0  0  0  0  0  0  0  0
   -4.5853   -1.2470   -1.0166 C   0  0  0  0  0  0  0  0  0  0  0  0
   -5.8021   -2.0148   -0.7838 N   0  0  1  0  0  0  0  0  0  0  0  0
   -6.4638   -2.3678   -1.9856 C   0  0  0  0  0  0  0  0  0  0  0  0
   -5.6023   -3.0620    0.1666 C   0  0  0  0  0  0  0  0  0  0  0  0
   -6.7300   -3.2934    1.1140 C   0  0  0  0  0  0  0  0  0  0  0  0
   -8.0517   -2.8937    0.6069 C   0  0  0  0  0  0  0  0  0  0  0  0
   -9.2373   -3.5213    0.9005 C   0  0  0  0  0  0  0  0  0  0  0  0
  -10.4219   -3.0921    0.3124 C   0  0  0  0  0  0  0  0  0  0  0  0
  -11.5257   -3.9392    0.1740 O   0  0  0  0  0  0  0  0  0  0  0  0
  -11.8681   -4.9018    1.1682 C   0  0  0  0  0  0  0  0  0  0  0  0
  -10.4269   -1.8175   -0.2442 C   0  0  0  0  0  0  0  0  0  0  0  0
  -11.6096   -1.3740   -0.8130 O   0  0  0  0  0  0  0  0  0  0  0  0
  -11.7257   -1.1214   -2.2116 C   0  0  0  0  0  0  0  0  0  0  0  0
   -9.2436   -1.0913   -0.3314 C   0  0  0  0  0  0  0  0  0  0  0  0
   -8.0824   -1.8583   -0.3181 C   0  0  0  0  0  0  0  0  0  0  0  0
   -6.7406   -0.9458   -0.0469 C   0  0  2  0  0  0  0  0  0  0  0  0
   -6.9792   -0.0867   -1.4641 C   0  0  0  0  0  0  0  0  0  0  0  0
   -7.1942    1.2867   -0.9731 C   0  0  0  0  0  0  0  0  0  0  0  0
   -7.3171    2.2914   -1.8908 C   0  0  0  0  0  0  0  0  0  0  0  0
   -8.1384    3.3902   -1.6626 C   0  0  0  0  0  0  0  0  0  0  0  0
   -8.6491    3.5857   -0.3845 C   0  0  0  0  0  0  0  0  0  0  0  0
   -9.7728    4.3828   -0.1515 O   0  0  0  0  0  0  0  0  0  0  0  0
  -10.8440    4.2944   -1.0882 C   0  0  0  0  0  0  0  0  0  0  0  0
   -8.1806    2.7588    0.6305 C   0  0  0  0  0  0  0  0  0  0  0  0
   -8.8058    2.8171    1.8815 O   0  0  0  0  0  0  0  0  0  0  0  0
  -10.1687    2.4120    2.0041 C   0  0  0  0  0  0  0  0  0  0  0  0
   -7.4398    1.6177    0.3429 C   0  0  0  0  0  0  0  0  0  0  0  0
    9.3691    0.9650   -2.3560 C   0  0  0  0  0  0  0  0  0  0  0  0
   10.0972   -0.2225   -2.3425 C   0  0  0  0  0  0  0  0  0  0  0  0
   11.3235   -0.2690   -1.6762 O   0  0  0  0  0  0  0  0  0  0  0  0
   11.9386   -1.4865   -1.3225 C   0  0  0  0  0  0  0  0  0  0  0  0
  1  2  1  0
  2  3  1  0
  3  4  2  0
  4  5  1  0
  5  6  2  0
  6  7  1  0
  8  7  1  6
  8  9  1  0
  9 10  2  0
 10 11  1  0
 11 12  1  0
 12 13  1  0
 11 14  2  0
 14 15  1  0
 15 16  1  0
 14 17  1  0
 17 18  2  0
 18 19  1  0
 19 20  1  0
 20 21  1  0
 21 22  1  1
 21 23  1  0
 23 24  1  0
 24 25  1  0
 25 26  2  0
 25 27  1  0
 27 28  1  0
 28 29  1  0
 29 30  1  0
 30 31  1  0
 31 32  1  0
 32 33  1  0
 33 34  1  0
 34 35  2  0
 34 36  1  0
 36 37  1  0
 38 37  1  6
 38 39  1  0
 38 40  1  0
 40 41  1  0
 41 42  1  0
 42 43  2  0
 43 44  1  0
 44 45  1  0
 45 46  1  0
 44 47  2  0
 47 48  1  0
 48 49  1  0
 47 50  1  0
 50 51  2  0
 51 52  1  0
 52 53  1  6
 53 54  1  0
 54 55  2  0
 55 56  1  0
 56 57  2  0
 57 58  1  0
 58 59  1  0
 57 60  1  0
 60 61  1  0
 61 62  1  0
 60 63  2  0
  6 64  1  0
 64 65  2  0
 65 66  1  0
 66 67  1  0
 65  3  1  0
 21  8  1  0
 52 38  1  0
 63 54  1  0
 18  9  1  0
 51 42  1  0
M  CHG  2  21   1  38   1
M  END
>  <zinc_id>  (331) 
ZINC000238809665

>  <smiles>  (331) 
COc1ccc(C[C@H]2c3cc(OC)c(OC)cc3CC[N@+]2(C)CCC(=O)OCCCCCOC(=O)CC[N@@+]2(C)CCc3cc(OC)c(OC)cc3[C@H]2Cc2ccc(OC)c(OC)c2)cc1OC

$$$$

     RDKit          3D

 23 25  0  0  0  0  0  0  0  0999 V2000
    2.0812    2.4168   -0.1854 C   0  0  0  0  0  0  0  0  0  0  0  0
    2.3774    1.4583   -1.3333 C   0  0  0  0  0  0  0  0  0  0  0  0
    3.1509    0.3655   -0.7471 N   0  0  0  0  0  0  0  0  0  0  0  0
    4.5122    0.6578   -0.4112 C   0  0  0  0  0  0  0  0  0  0  0  0
    5.2379    1.7741   -1.0931 C   0  0  0  0  0  0  0  0  0  0  0  0
    5.0442    0.2578    0.6650 O   0  0  0  0  0  0  0  0  0  0  0  0
    2.4388   -0.4924    0.1512 C   0  0  0  0  0  0  0  0  0  0  0  0
    2.9224   -1.7898    0.2518 C   0  0  0  0  0  0  0  0  0  0  0  0
    2.2397   -2.7112    1.0206 C   0  0  0  0  0  0  0  0  0  0  0  0
    0.8787   -2.5033    1.2022 C   0  0  0  0  0  0  0  0  0  0  0  0
    0.2976   -1.2640    0.9911 C   0  0  0  0  0  0  0  0  0  0  0  0
   -1.1538   -1.2118    0.7913 C   0  0  0  0  0  0  0  0  0  0  0  0
   -1.7285   -2.2254    0.0346 C   0  0  0  0  0  0  0  0  0  0  0  0
   -3.0884   -2.2192   -0.1465 C   0  0  0  0  0  0  0  0  0  0  0  0
   -3.7299   -1.0804    0.1550 N   0  0  0  0  0  0  0  0  0  0  0  0
   -3.0461    0.0738    0.3339 C   0  0  0  0  0  0  0  0  0  0  0  0
   -3.4176    1.4130    0.2814 C   0  0  0  0  0  0  0  0  0  0  0  0
   -4.7472    1.9241    0.0630 C   0  0  0  0  0  0  0  0  0  0  0  0
   -5.8506    2.1168   -0.2626 N   0  0  0  0  0  0  0  0  0  0  0  0
   -2.4189    2.0783    0.9485 C   0  0  0  0  0  0  0  0  0  0  0  0
   -1.3954    1.2258    1.0844 N   0  0  0  0  0  0  0  0  0  0  0  0
   -1.7338    0.0075    0.6652 N   0  0  0  0  0  0  0  0  0  0  0  0
    1.1292   -0.2721    0.5171 C   0  0  0  0  0  0  0  0  0  0  0  0
  1  2  1  0
  2  3  1  0
  3  4  1  0
  4  5  1  0
  4  6  2  0
  3  7  1  0
  7  8  2  0
  8  9  1  0
  9 10  2  0
 10 11  1  0
 11 12  1  0
 12 13  2  0
 13 14  1  0
 14 15  2  0
 15 16  1  0
 16 17  2  0
 17 18  1  0
 18 19  3  0
 17 20  1  0
 20 21  2  0
 21 22  1  0
 11 23  2  0
 23  7  1  0
 22 12  1  0
 22 16  1  0
M  END
>  <zinc_id>  (332) 
ZINC000000006300

>  <smiles>  (332) 
CCN(C(C)=O)c1cccc(-c2ccnc3c(C#N)cnn23)c1

$$$$

     RDKit          3D

 35 38  0  0  0  0  0  0  0  0999 V2000
   -4.5643   -3.8714   -1.9063 C   0  0  0  0  0  0  0  0  0  0  0  0
   -5.1248   -2.7351   -2.1855 C   0  0  0  0  0  0  0  0  0  0  0  0
   -4.7959   -1.6464   -1.3219 O   0  0  0  0  0  0  0  0  0  0  0  0
   -3.4633   -1.4159   -1.0776 C   0  0  0  0  0  0  0  0  0  0  0  0
   -2.6861   -1.6979   -2.0095 O   0  0  0  0  0  0  0  0  0  0  0  0
   -2.9109   -0.4321   -0.2599 O   0  0  0  0  0  0  0  0  0  0  0  0
   -1.8358   -0.7979    0.5571 C   0  0  1  0  0  0  0  0  0  0  0  0
   -2.2671   -0.3721    1.9314 C   0  0  0  0  0  0  0  0  0  0  0  0
   -2.2819   -1.2149    2.8205 O   0  0  0  0  0  0  0  0  0  0  0  0
   -3.2237    0.7704    2.1387 C   0  0  0  0  0  0  0  0  0  0  0  0
   -2.9364    1.7522    1.1891 O   0  0  0  0  0  0  0  0  0  0  0  0
   -3.5877    2.9462    1.0180 C   0  0  0  0  0  0  0  0  0  0  0  0
   -4.7618    3.0058    1.4395 O   0  0  0  0  0  0  0  0  0  0  0  0
   -2.9538    3.9637    0.1477 C   0  0  0  0  0  0  0  0  0  0  0  0
   -3.9245    5.1037   -0.0591 C   0  0  0  0  0  0  0  0  0  0  0  0
   -1.5726   -2.3003    0.4813 C   0  0  0  0  0  0  0  0  0  0  0  0
   -0.2354   -2.4141   -0.2655 C   0  0  0  0  0  0  0  0  0  0  0  0
    0.4188   -1.4389    0.8476 C   0  0  1  0  0  0  0  0  0  0  0  0
    1.6958   -0.9239   -0.1114 C   0  0  2  0  0  0  0  0  0  0  0  0
    2.5955   -2.1997    0.2694 C   0  0  0  0  0  0  0  0  0  0  0  0
    3.7500   -1.9142   -0.6659 C   0  0  0  0  0  0  0  0  0  0  0  0
    4.0177   -0.4410   -0.6647 C   0  0  0  0  0  0  0  0  0  0  0  0
    5.1435   -0.0661   -1.2782 C   0  0  0  0  0  0  0  0  0  0  0  0
    6.1394    0.7862   -0.6037 C   0  0  0  0  0  0  0  0  0  0  0  0
    7.2961    0.9097   -1.1113 O   0  0  0  0  0  0  0  0  0  0  0  0
    5.9165    0.8444    0.8511 C   0  0  0  0  0  0  0  0  0  0  0  0
    4.7810    0.3669    1.3761 C   0  0  0  0  0  0  0  0  0  0  0  0
    3.6323    0.4721    0.4070 C   0  0  1  0  0  0  0  0  0  0  0  0
    3.6291    1.9013    0.0761 C   0  0  0  0  0  0  0  0  0  0  0  0
    2.3190   -0.0298    1.1590 C   0  0  1  0  0  0  0  0  0  0  0  0
    1.4087    1.3994    0.9018 C   0  0  1  0  0  0  0  0  0  0  0  0
    1.3395    1.3156   -0.6054 O   0  0  0  0  0  0  0  0  0  0  0  0
   -0.0686    0.7692    1.1621 C   0  0  0  0  0  0  0  0  0  0  0  0
   -0.5036   -0.2279    0.2826 C   0  0  2  0  0  0  0  0  0  0  0  0
   -0.3847   -0.1673   -1.1863 C   0  0  0  0  0  0  0  0  0  0  0  0
  1  2  1  0
  2  3  1  0
  3  4  1  0
  4  5  2  0
  4  6  1  0
  7  6  1  6
  7  8  1  0
  8  9  2  0
  8 10  1  0
 10 11  1  0
 11 12  1  0
 12 13  2  0
 12 14  1  0
 14 15  1  0
  7 16  1  0
 16 17  1  0
 18 17  1  6
 18 19  1  0
 19 20  1  1
 20 21  1  0
 21 22  1  0
 22 23  2  0
 23 24  1  0
 24 25  2  0
 24 26  1  0
 26 27  2  0
 27 28  1  0
 28 29  1  6
 30 28  1  6
 30 31  1  0
 31 32  1  6
 31 33  1  0
 33 34  1  0
 34 35  1  6
 34  7  1  0
 34 18  1  0
 30 19  1  0
 28 22  1  0
M  END
>  <zinc_id>  (333) 
ZINC000118913560

>  <smiles>  (333) 
CCOC(=O)O[C@@]1(C(=O)COC(=O)CC)CC[C@H]2[C@@H]3CCC4=CC(=O)C=C[C@]4(C)[C@H]3[C@@H](O)C[C@@]21C

$$$$

     RDKit          3D

 31 34  0  0  0  0  0  0  0  0999 V2000
   -2.0834   -0.0090   -2.3514 C   0  0  0  0  0  0  0  0  0  0  0  0
   -1.4309   -0.9144   -1.1486 C   0  0  1  0  0  0  0  0  0  0  0  0
    0.0542   -0.7814   -1.7396 C   0  0  0  0  0  0  0  0  0  0  0  0
    1.0798   -1.4705   -1.1827 N   0  0  0  0  0  0  0  0  0  0  0  0
    2.2243   -0.9600   -1.6546 C   0  0  0  0  0  0  0  0  0  0  0  0
    3.4591   -0.9187   -0.8588 C   0  0  0  0  0  0  0  0  0  0  0  0
    4.5333   -0.1825   -1.3431 C   0  0  0  0  0  0  0  0  0  0  0  0
    5.3567    0.4882   -0.4810 C   0  0  0  0  0  0  0  0  0  0  0  0
    5.2709    0.2957    0.8694 C   0  0  0  0  0  0  0  0  0  0  0  0
    5.9830    1.1924    1.7225 C   0  0  0  0  0  0  0  0  0  0  0  0
    6.6878    1.6378    2.5109 N   0  0  0  0  0  0  0  0  0  0  0  0
    4.4278   -0.6945    1.3580 C   0  0  0  0  0  0  0  0  0  0  0  0
    3.4831   -1.1988    0.4903 C   0  0  0  0  0  0  0  0  0  0  0  0
    2.2357   -0.9378   -3.0458 C   0  0  0  0  0  0  0  0  0  0  0  0
    0.5448   -0.8230   -3.3566 S   0  0  0  0  0  0  0  0  0  0  0  0
   -1.2840    0.3568   -0.1290 C   0  0  2  0  0  0  0  0  0  0  0  0
   -0.3635    1.2300   -0.6135 O   0  0  0  0  0  0  0  0  0  0  0  0
   -0.9350   -0.3135    1.1557 C   0  0  0  0  0  0  0  0  0  0  0  0
   -1.5432   -1.5910    1.3681 N   0  0  0  0  0  0  0  0  0  0  0  0
   -2.7062   -2.1329    0.9697 C   0  0  0  0  0  0  0  0  0  0  0  0
   -3.0980   -3.0754    1.8629 N   0  0  0  0  0  0  0  0  0  0  0  0
   -2.2241   -2.9587    2.8932 C   0  0  0  0  0  0  0  0  0  0  0  0
   -1.1154   -2.4379    2.3069 N   0  0  0  0  0  0  0  0  0  0  0  0
   -2.6014    1.0458   -0.1013 C   0  0  0  0  0  0  0  0  0  0  0  0
   -2.7860    2.1227   -0.9729 C   0  0  0  0  0  0  0  0  0  0  0  0
   -4.0784    2.5669   -1.1130 C   0  0  0  0  0  0  0  0  0  0  0  0
   -4.3168    3.4320   -2.1406 F   0  0  0  0  0  0  0  0  0  0  0  0
   -4.8177    2.6214    0.0630 C   0  0  0  0  0  0  0  0  0  0  0  0
   -4.3228    1.9915    1.1988 C   0  0  0  0  0  0  0  0  0  0  0  0
   -3.1853    1.1899    1.1552 C   0  0  0  0  0  0  0  0  0  0  0  0
   -2.4486    1.2287    2.3078 F   0  0  0  0  0  0  0  0  0  0  0  0
  2  1  1  6
  2  3  1  0
  3  4  2  0
  4  5  1  0
  5  6  1  0
  6  7  2  0
  7  8  1  0
  8  9  2  0
  9 10  1  0
 10 11  3  0
  9 12  1  0
 12 13  2  0
  5 14  2  0
 14 15  1  0
  2 16  1  0
 16 17  1  6
 16 18  1  0
 18 19  1  0
 19 20  1  0
 20 21  2  0
 21 22  1  0
 22 23  2  0
 16 24  1  0
 24 25  2  0
 25 26  1  0
 26 27  1  0
 26 28  2  0
 28 29  1  0
 29 30  2  0
 30 31  1  0
 15  3  1  0
 23 19  1  0
 30 24  1  0
 13  6  1  0
M  END
>  <zinc_id>  (334) 
ZINC000001485935

>  <smiles>  (334) 
C[C@@H](c1nc(-c2ccc(C#N)cc2)cs1)[C@](O)(Cn1cncn1)c1cc(F)ccc1F

$$$$

     RDKit          3D

 15 17  0  0  0  0  0  0  0  0999 V2000
   -3.0940   -1.4283    0.0074 C   0  0  0  0  0  0  0  0  0  0  0  0
   -1.9324   -2.0790   -0.3270 C   0  0  0  0  0  0  0  0  0  0  0  0
   -0.7595   -1.4121   -0.1170 C   0  0  0  0  0  0  0  0  0  0  0  0
   -0.7152   -0.0376   -0.3568 C   0  0  0  0  0  0  0  0  0  0  0  0
   -1.9095    0.6066   -0.0251 C   0  0  0  0  0  0  0  0  0  0  0  0
   -3.0552   -0.1021    0.3246 C   0  0  0  0  0  0  0  0  0  0  0  0
   -1.7999    1.9696    0.5903 C   0  0  0  0  0  0  0  0  0  0  0  0
   -0.7759    2.8234   -0.0892 C   0  0  0  0  0  0  0  0  0  0  0  0
    0.4361    2.0309   -0.4875 C   0  0  0  0  0  0  0  0  0  0  0  0
    0.4399    0.7127    0.5204 C   0  0  2  0  0  0  0  0  0  0  0  0
    1.6557    0.0164   -0.3157 C   0  0  0  0  0  0  0  0  0  0  0  0
    2.8327    0.5064   -0.0945 N   0  0  0  0  0  0  0  0  0  0  0  0
    3.7259   -0.4404    0.5198 C   0  0  0  0  0  0  0  0  0  0  0  0
    3.1263   -1.7860    0.1464 C   0  0  0  0  0  0  0  0  0  0  0  0
    1.8251   -1.3803   -0.2962 N   0  0  0  0  0  0  0  0  0  0  0  0
  1  2  2  0
  2  3  1  0
  3  4  2  0
  4  5  1  0
  5  6  2  0
  5  7  1  0
  7  8  1  0
  8  9  1  0
  9 10  1  0
 10 11  1  6
 11 12  2  0
 12 13  1  0
 13 14  1  0
 14 15  1  0
  6  1  1  0
 15 11  1  0
 10  4  1  0
M  END
>  <zinc_id>  (335) 
ZINC000000113428

>  <smiles>  (335) 
c1ccc2c(c1)CCC[C@@H]2C1=NCCN1

$$$$

     RDKit          3D

 16 18  0  0  0  0  0  0  0  0999 V2000
   -2.0945    2.3678    0.0820 C   0  0  0  0  0  0  0  0  0  0  0  0
   -1.6575    2.0400    1.3547 C   0  0  0  0  0  0  0  0  0  0  0  0
   -1.1641    0.7663    1.5724 C   0  0  0  0  0  0  0  0  0  0  0  0
   -1.2308   -0.2105    0.5859 C   0  0  0  0  0  0  0  0  0  0  0  0
   -2.0583    0.0307   -0.5030 C   0  0  0  0  0  0  0  0  0  0  0  0
   -2.4677    1.3320   -0.7635 C   0  0  0  0  0  0  0  0  0  0  0  0
   -1.9643   -0.8952   -1.5341 C   0  0  0  0  0  0  0  0  0  0  0  0
   -1.3270   -2.1156   -1.3667 C   0  0  0  0  0  0  0  0  0  0  0  0
   -0.2971   -2.1599   -0.4470 C   0  0  0  0  0  0  0  0  0  0  0  0
   -0.2827   -1.2238    0.5799 C   0  0  0  0  0  0  0  0  0  0  0  0
    0.9961   -1.1191    1.3507 C   0  0  0  0  0  0  0  0  0  0  0  0
    1.9587   -0.3369    0.5119 C   0  0  0  0  0  0  0  0  0  0  0  0
    2.9684   -0.9041   -0.0527 N   0  0  0  0  0  0  0  0  0  0  0  0
    3.7579    0.0637   -0.7896 C   0  0  0  0  0  0  0  0  0  0  0  0
    2.8982    1.3134   -0.8320 C   0  0  0  0  0  0  0  0  0  0  0  0
    1.9646    1.0511    0.2512 N   0  0  0  0  0  0  0  0  0  0  0  0
  1  2  2  0
  2  3  1  0
  3  4  2  0
  4  5  1  0
  5  6  2  0
  5  7  1  0
  7  8  2  0
  8  9  1  0
  9 10  2  0
 10 11  1  0
 11 12  1  0
 12 13  2  0
 13 14  1  0
 14 15  1  0
 15 16  1  0
  6  1  1  0
 16 12  1  0
 10  4  1  0
M  END
>  <zinc_id>  (336) 
ZINC000000119717

>  <smiles>  (336) 
c1ccc2c(CC3=NCCN3)cccc2c1

$$$$

     RDKit          3D

 26 28  0  0  0  0  0  0  0  0999 V2000
    2.3399    0.2079    0.8271 O   0  0  0  0  0  0  0  0  0  0  0  0
    3.0629   -0.8318    0.7573 C   0  0  0  0  0  0  0  0  0  0  0  0
    2.3447   -2.0688    0.3181 C   0  0  0  0  0  0  0  0  0  0  0  0
    1.7425   -1.9106   -1.0588 C   0  0  0  0  0  0  0  0  0  0  0  0
    0.5374   -1.0088   -1.0700 C   0  0  0  0  0  0  0  0  0  0  0  0
   -0.6905   -1.7096   -0.7385 N   0  0  0  0  0  0  0  0  0  0  0  0
   -1.7788   -0.9046   -1.2895 C   0  0  0  0  0  0  0  0  0  0  0  0
   -1.8667    0.3303   -0.4004 C   0  0  0  0  0  0  0  0  0  0  0  0
   -2.6988   -0.0814    0.8075 C   0  0  0  0  0  0  0  0  0  0  0  0
   -2.2905    0.7097    1.8657 O   0  0  0  0  0  0  0  0  0  0  0  0
   -4.1601    0.0492    0.5278 C   0  0  0  0  0  0  0  0  0  0  0  0
   -4.6226   -0.0553   -0.7786 C   0  0  0  0  0  0  0  0  0  0  0  0
   -5.7402    0.6483   -1.2128 C   0  0  0  0  0  0  0  0  0  0  0  0
   -6.2478    1.6821   -0.4352 C   0  0  0  0  0  0  0  0  0  0  0  0
   -6.7344    3.2210   -1.1423 Cl  0  0  0  0  0  0  0  0  0  0  0  0
   -6.0264    1.5515    0.9310 C   0  0  0  0  0  0  0  0  0  0  0  0
   -5.0027    0.7358    1.3944 C   0  0  0  0  0  0  0  0  0  0  0  0
   -2.3162   -1.5288    1.0910 C   0  0  0  0  0  0  0  0  0  0  0  0
   -0.8654   -1.7160    0.7085 C   0  0  0  0  0  0  0  0  0  0  0  0
    4.4489   -0.6355    0.3182 C   0  0  0  0  0  0  0  0  0  0  0  0
    4.7300   -0.1686   -0.9587 C   0  0  0  0  0  0  0  0  0  0  0  0
    5.8402    0.6150   -1.2211 C   0  0  0  0  0  0  0  0  0  0  0  0
    6.6561    1.0102   -0.1692 C   0  0  0  0  0  0  0  0  0  0  0  0
    7.2292    2.2488   -0.1333 F   0  0  0  0  0  0  0  0  0  0  0  0
    6.6048    0.2090    0.9629 C   0  0  0  0  0  0  0  0  0  0  0  0
    5.5043   -0.5991    1.2198 C   0  0  0  0  0  0  0  0  0  0  0  0
  1  2  2  0
  2  3  1  0
  3  4  1  0
  4  5  1  0
  5  6  1  0
  6  7  1  0
  7  8  1  0
  8  9  1  0
  9 10  1  0
  9 11  1  0
 11 12  2  0
 12 13  1  0
 13 14  2  0
 14 15  1  0
 14 16  1  0
 16 17  2  0
  9 18  1  0
 18 19  1  0
  2 20  1  0
 20 21  2  0
 21 22  1  0
 22 23  2  0
 23 24  1  0
 23 25  1  0
 25 26  2  0
 19  6  1  0
 26 20  1  0
 17 11  1  0
M  END
>  <zinc_id>  (337) 
ZINC000000537822

>  <smiles>  (337) 
O=C(CCCN1CCC(O)(c2ccc(Cl)cc2)CC1)c1ccc(F)cc1

$$$$

     RDKit          3D

 30 31  0  0  0  0  0  0  0  0999 V2000
   -5.0244    4.6716    0.6597 C   0  0  0  0  0  0  0  0  0  0  0  0
   -4.1657    3.9804   -0.1594 C   0  0  0  0  0  0  0  0  0  0  0  0
   -3.3090    3.0727    0.9012 C   0  0  2  0  0  0  0  0  0  0  0  0
   -1.9573    3.9647    0.7025 C   0  0  0  0  0  0  0  0  0  0  0  0
   -2.9147    1.9694   -0.2000 C   0  0  0  0  0  0  0  0  0  0  0  0
   -3.9889    1.4029   -0.5864 O   0  0  0  0  0  0  0  0  0  0  0  0
   -2.0279    0.9543   -0.0175 O   0  0  0  0  0  0  0  0  0  0  0  0
   -2.2528   -0.0870    1.0811 C   0  0  1  0  0  0  0  0  0  0  0  0
   -3.8287   -0.2980    0.6920 C   0  0  0  0  0  0  0  0  0  0  0  0
   -4.2221   -1.8045    1.2058 C   0  0  2  0  0  0  0  0  0  0  0  0
   -2.8880   -2.1291    1.8693 O   0  0  0  0  0  0  0  0  0  0  0  0
   -3.7466   -2.4010   -0.2319 C   0  0  0  0  0  0  0  0  0  0  0  0
   -2.7642   -1.6713   -0.7984 C   0  0  0  0  0  0  0  0  0  0  0  0
   -2.1247   -2.2485   -1.9923 C   0  0  0  0  0  0  0  0  0  0  0  0
   -0.9967   -2.8797   -1.8412 C   0  0  0  0  0  0  0  0  0  0  0  0
    0.2553   -2.1250   -1.2108 C   0  0  2  0  0  0  0  0  0  0  0  0
    0.1761   -2.9526    0.1980 C   0  0  0  0  0  0  0  0  0  0  0  0
   -0.5352   -0.7191   -0.6874 C   0  0  2  0  0  0  0  0  0  0  0  0
    0.6402   -0.5033    0.3985 C   0  0  0  0  0  0  0  0  0  0  0  0
    1.9149   -0.4054   -0.4484 C   0  0  0  0  0  0  0  0  0  0  0  0
    3.0895   -1.1685    0.4226 C   0  0  1  0  0  0  0  0  0  0  0  0
    3.4075   -2.1435   -0.7012 O   0  0  0  0  0  0  0  0  0  0  0  0
    4.2814   -0.1574   -0.1151 C   0  0  0  0  0  0  0  0  0  0  0  0
    5.3648   -0.5972    1.0532 C   0  0  1  0  0  0  0  0  0  0  0  0
    6.0382   -1.6070    0.1380 O   0  0  0  0  0  0  0  0  0  0  0  0
    6.4318    0.5831    0.6165 C   0  0  0  0  0  0  0  0  0  0  0  0
    5.6164    1.8298    0.5299 C   0  0  0  0  0  0  0  0  0  0  0  0
    5.9858    2.7902    1.2497 O   0  0  0  0  0  0  0  0  0  0  0  0
    5.1885    2.1637   -0.7599 O   0  0  0  0  0  0  0  0  0  0  0  0
   -1.6436   -1.4847    0.3114 C   0  0  1  0  0  0  0  0  0  0  0  0
  1  2  1  0
  3  2  1  6
  3  4  1  0
  3  5  1  0
  5  6  2  0
  5  7  1  0
  8  7  1  6
  8  9  1  0
  9 10  1  0
 10 11  1  1
 10 12  1  0
 12 13  2  0
 13 14  1  0
 14 15  2  0
 15 16  1  0
 16 17  1  1
 16 18  1  0
 18 19  1  1
 19 20  1  0
 21 20  1  6
 21 22  1  0
 21 23  1  0
 24 23  1  6
 24 25  1  0
 24 26  1  0
 26 27  1  0
 27 28  2  0
 27 29  1  0
 18 30  1  0
 30  8  1  0
 30 13  1  6
M  END
>  <zinc_id>  (338) 
ZINC000003798763

>  <smiles>  (338) 
CC[C@H](C)C(=O)O[C@H]1C[C@H](O)C=C2C=C[C@H](C)[C@H](CC[C@@H](O)C[C@@H](O)CC(=O)O)[C@H]21

$$$$

     RDKit          3D

 24 27  0  0  0  0  0  0  0  0999 V2000
    0.6623   -2.2493   -2.4081 C   0  0  0  0  0  0  0  0  0  0  0  0
    0.1427   -1.9698   -2.1329 O   0  0  0  0  0  0  0  0  0  0  0  0
   -0.2283   -1.5304   -0.8895 C   0  0  2  0  0  0  0  0  0  0  0  0
   -0.1725   -2.8351    0.0772 C   0  0  1  0  0  0  0  0  0  0  0  0
   -1.2705   -2.2556    1.2240 N   0  0  0  0  0  0  0  0  0  0  0  0
   -1.8011   -3.2185   -0.0511 C   0  0  1  0  0  0  0  0  0  0  0  0
   -2.2413   -1.9800   -1.0269 C   0  0  0  0  0  0  0  0  0  0  0  0
   -1.3976   -0.9139   -0.6723 N   0  0  0  0  0  0  0  0  0  0  0  0
   -1.1704    0.3220   -0.0455 C   0  0  0  0  0  0  0  0  0  0  0  0
    0.0548    0.6740   -0.0163 C   0  0  0  0  0  0  0  0  0  0  0  0
    0.5064    2.0586    0.0536 C   0  0  0  0  0  0  0  0  0  0  0  0
    1.6766    2.2621    0.4431 O   0  0  0  0  0  0  0  0  0  0  0  0
   -0.4943    3.0753    0.3232 C   0  0  0  0  0  0  0  0  0  0  0  0
   -0.0562    4.4389    0.4108 N   0  0  0  0  0  0  0  0  0  0  0  0
   -1.7944    2.7835    0.2752 C   0  0  0  0  0  0  0  0  0  0  0  0
   -2.7783    3.8567   -0.0687 C   0  0  0  0  0  0  0  0  0  0  0  0
   -2.1586    1.3601    0.2877 C   0  0  0  0  0  0  0  0  0  0  0  0
   -3.3539    1.0638    0.4689 O   0  0  0  0  0  0  0  0  0  0  0  0
    0.9773   -0.5803   -0.3951 C   0  0  1  0  0  0  0  0  0  0  0  0
    1.0411   -1.0715    1.1688 C   0  0  0  0  0  0  0  0  0  0  0  0
    2.3511   -0.6129    1.4954 O   0  0  0  0  0  0  0  0  0  0  0  0
    3.4739   -0.8748    0.7465 C   0  0  0  0  0  0  0  0  0  0  0  0
    4.6288   -0.0335    0.8726 N   0  0  0  0  0  0  0  0  0  0  0  0
    3.4025   -1.7695   -0.1407 O   0  0  0  0  0  0  0  0  0  0  0  0
  1  2  1  0
  3  2  1  6
  3  4  1  0
  4  5  1  1
  6  5  1  1
  6  7  1  0
  7  8  1  0
  8  9  1  0
  9 10  2  0
 10 11  1  0
 11 12  2  0
 11 13  1  0
 13 14  1  0
 13 15  2  0
 15 16  1  0
 15 17  1  0
 17 18  2  0
 10 19  1  0
 19 20  1  1
 20 21  1  0
 21 22  1  0
 22 23  1  0
 22 24  2  0
  8  3  1  0
 17  9  1  0
 19  3  1  0
  6  4  1  0
M  END
>  <zinc_id>  (339) 
ZINC000030726187

>  <smiles>  (339) 
CO[C@@]12[C@H](COC(N)=O)C3=C(C(=O)C(C)=C(N)C3=O)N1C[C@@H]1N[C@@H]12

$$$$

     RDKit          3D

 55 62  0  0  0  0  0  0  0  0999 V2000
   -4.0634    9.5238   -0.7919 C   0  0  0  0  0  0  0  0  0  0  0  0
   -3.5524    8.1860   -0.6689 C   0  0  0  0  0  0  0  0  0  0  0  0
   -2.4042    7.8865   -1.3840 C   0  0  0  0  0  0  0  0  0  0  0  0
   -1.7448    6.7332   -1.1309 N   0  0  0  0  0  0  0  0  0  0  0  0
   -2.3120    5.7906   -0.3456 C   0  0  0  0  0  0  0  0  0  0  0  0
   -1.5960    4.5487   -0.0244 C   0  0  0  0  0  0  0  0  0  0  0  0
   -1.5968    4.0745    1.1521 O   0  0  0  0  0  0  0  0  0  0  0  0
   -0.5884    4.1464   -0.8879 N   0  0  0  0  0  0  0  0  0  0  0  0
    0.2480    2.8590   -0.5400 C   0  0  1  0  0  0  0  0  0  0  0  0
    0.5125    3.3609    1.0086 C   0  0  0  0  0  0  0  0  0  0  0  0
    1.4490    4.5260    0.9255 C   0  0  0  0  0  0  0  0  0  0  0  0
    2.7888    4.2626    0.3465 C   0  0  0  0  0  0  0  0  0  0  0  0
    3.9415    4.3952    1.3413 C   0  0  0  0  0  0  0  0  0  0  0  0
    4.6646    3.0447    1.5221 C   0  0  0  0  0  0  0  0  0  0  0  0
    3.6101    2.1803    1.1727 C   0  0  0  0  0  0  0  0  0  0  0  0
    3.6455    1.4971    0.0627 C   0  0  0  0  0  0  0  0  0  0  0  0
    4.4361    0.1973    0.6594 C   0  0  1  0  0  0  0  0  0  0  0  0
    3.1543   -0.4182    1.5259 C   0  0  0  0  0  0  0  0  0  0  0  0
    3.3800   -0.8921   -0.0267 C   0  0  2  0  0  0  0  0  0  0  0  0
    4.3085   -2.0038   -0.2232 C   0  0  0  0  0  0  0  0  0  0  0  0
    4.1394   -3.2004    0.0551 O   0  0  0  0  0  0  0  0  0  0  0  0
    5.3071   -1.8288   -1.2389 N   0  0  0  0  0  0  0  0  0  0  0  0
    6.8079   -2.6375   -1.2736 S   0  0  0  0  0  0  0  0  0  0  0  0
    7.2918   -2.7584   -2.7001 O   0  0  0  0  0  0  0  0  0  0  0  0
    7.7837   -1.6724   -0.6242 O   0  0  0  0  0  0  0  0  0  0  0  0
    6.8946   -4.1257   -0.3745 C   0  0  0  0  0  0  0  0  0  0  0  0
    7.2094   -3.9637    1.1287 C   0  0  0  0  0  0  0  0  0  0  0  0
    8.2928   -4.4287    0.2359 C   0  0  0  0  0  0  0  0  0  0  0  0
    2.5852   -0.3095   -0.9729 N   0  0  0  0  0  0  0  0  0  0  0  0
    1.2046    0.0700   -0.9723 C   0  0  0  0  0  0  0  0  0  0  0  0
    0.4376   -0.3320   -1.8523 O   0  0  0  0  0  0  0  0  0  0  0  0
    0.6282    0.1086    0.5375 C   0  0  2  0  0  0  0  0  0  0  0  0
    0.2182   -1.4854    0.4890 C   0  0  0  0  0  0  0  0  0  0  0  0
   -1.3519   -1.3550    0.0626 C   0  0  1  0  0  0  0  0  0  0  0  0
   -1.8063   -2.4104    1.0873 O   0  0  0  0  0  0  0  0  0  0  0  0
   -2.7456   -3.2888    0.5543 C   0  0  0  0  0  0  0  0  0  0  0  0
   -2.4874   -4.6174    0.5764 N   0  0  0  0  0  0  0  0  0  0  0  0
   -3.2537   -5.5290   -0.0247 C   0  0  0  0  0  0  0  0  0  0  0  0
   -2.9208   -6.8679   -0.0054 C   0  0  0  0  0  0  0  0  0  0  0  0
   -3.7842   -7.8531   -0.4670 C   0  0  0  0  0  0  0  0  0  0  0  0
   -4.9482   -7.4259   -1.0721 C   0  0  0  0  0  0  0  0  0  0  0  0
   -5.3192   -6.1029   -1.0496 C   0  0  0  0  0  0  0  0  0  0  0  0
   -4.4933   -5.1393   -0.5101 C   0  0  0  0  0  0  0  0  0  0  0  0
   -4.9413   -3.8488   -0.2984 C   0  0  0  0  0  0  0  0  0  0  0  0
   -6.1483   -3.4209   -0.8045 C   0  0  0  0  0  0  0  0  0  0  0  0
   -6.4666   -2.0729   -0.8568 C   0  0  0  0  0  0  0  0  0  0  0  0
   -5.6368   -1.1998   -0.1756 C   0  0  0  0  0  0  0  0  0  0  0  0
   -4.4065   -1.6251    0.3031 C   0  0  0  0  0  0  0  0  0  0  0  0
   -4.0261   -2.9354    0.2115 C   0  0  0  0  0  0  0  0  0  0  0  0
   -1.5479   -0.1328    1.1467 C   0  0  0  0  0  0  0  0  0  0  0  0
   -0.7918    0.6446    0.1586 N   0  0  0  0  0  0  0  0  0  0  0  0
   -1.0325    1.9725   -0.1259 C   0  0  0  0  0  0  0  0  0  0  0  0
   -2.0413    2.0956   -0.8917 O   0  0  0  0  0  0  0  0  0  0  0  0
   -3.2269    6.2589    0.5871 C   0  0  0  0  0  0  0  0  0  0  0  0
   -3.7050    7.5188    0.5001 N   0  0  0  0  0  0  0  0  0  0  0  0
  1  2  1  0
  2  3  2  0
  3  4  1  0
  4  5  2  0
  5  6  1  0
  6  7  2  0
  6  8  1  0
  9  8  1  6
  9 10  1  0
 10 11  1  0
 11 12  1  0
 12 13  1  0
 13 14  1  0
 14 15  1  0
 15 16  2  0
 17 16  1  6
 17 18  1  0
 18 19  1  0
 19 20  1  1
 20 21  2  0
 20 22  1  0
 22 23  1  0
 23 24  2  0
 23 25  2  0
 23 26  1  0
 26 27  1  0
 27 28  1  0
 19 29  1  0
 29 30  1  0
 30 31  2  0
 32 30  1  6
 32 33  1  0
 33 34  1  0
 34 35  1  1
 35 36  1  0
 36 37  2  0
 37 38  1  0
 38 39  2  0
 39 40  1  0
 40 41  2  0
 41 42  1  0
 42 43  2  0
 43 44  1  0
 44 45  2  0
 45 46  1  0
 46 47  2  0
 47 48  1  0
 48 49  2  0
 34 50  1  0
 50 51  1  0
 51 52  1  0
 52 53  2  0
  5 54  1  0
 54 55  2  0
 55  2  1  0
 52  9  1  0
 19 17  1  0
 28 26  1  0
 51 32  1  0
 49 36  1  0
 43 38  1  0
 49 44  1  0
M  END
>  <zinc_id>  (340) 
ZINC000203757351

>  <smiles>  (340) 
Cc1cnc(C(=O)N[C@H]2CCCCC/C=C\[C@H]3C[C@@]3(C(=O)NS(=O)(=O)C3CC3)NC(=O)[C@@H]3C[C@@H](Oc4nc5ccccc5c5ccccc45)CN3C2=O)cn1

$$$$

     RDKit          3D

 20 22  0  0  0  0  0  0  0  0999 V2000
    4.7141   -0.4755    1.3972 C   0  0  0  0  0  0  0  0  0  0  0  0
    3.8462    0.5870    0.9139 N   0  0  0  0  0  0  0  0  0  0  0  0
    3.8464    0.6621   -0.5388 C   0  0  0  0  0  0  0  0  0  0  0  0
    2.4806    0.3053   -1.1133 C   0  0  0  0  0  0  0  0  0  0  0  0
    1.5268    0.2609    0.0410 C   0  0  0  0  0  0  0  0  0  0  0  0
    0.1451    0.0364   -0.3766 N   0  0  0  0  0  0  0  0  0  0  0  0
   -0.3826   -1.2773   -0.1496 C   0  0  0  0  0  0  0  0  0  0  0  0
    0.6502   -2.1752   -0.3468 C   0  0  0  0  0  0  0  0  0  0  0  0
    0.4287   -3.5184   -0.1851 C   0  0  0  0  0  0  0  0  0  0  0  0
   -0.8525   -3.9138    0.1405 C   0  0  0  0  0  0  0  0  0  0  0  0
   -1.8077   -3.0142    0.5961 C   0  0  0  0  0  0  0  0  0  0  0  0
   -1.6550   -1.6794    0.2407 C   0  0  0  0  0  0  0  0  0  0  0  0
   -2.7250   -0.8531    0.8830 C   0  0  0  0  0  0  0  0  0  0  0  0
   -3.0659    0.3365    0.0331 C   0  0  0  0  0  0  0  0  0  0  0  0
   -1.9962    1.3777    0.0385 C   0  0  0  0  0  0  0  0  0  0  0  0
   -2.5063    2.6602    0.2025 C   0  0  0  0  0  0  0  0  0  0  0  0
   -1.5769    3.6906    0.1342 C   0  0  0  0  0  0  0  0  0  0  0  0
   -0.4395    3.5396   -0.6398 C   0  0  0  0  0  0  0  0  0  0  0  0
    0.0776    2.2628   -0.8232 C   0  0  0  0  0  0  0  0  0  0  0  0
   -0.7079    1.1875   -0.4475 C   0  0  0  0  0  0  0  0  0  0  0  0
  1  2  1  0
  2  3  1  0
  3  4  1  0
  4  5  1  0
  5  6  1  0
  6  7  1  0
  7  8  2  0
  8  9  1  0
  9 10  2  0
 10 11  1  0
 11 12  2  0
 12 13  1  0
 13 14  1  0
 14 15  1  0
 15 16  2  0
 16 17  1  0
 17 18  2  0
 18 19  1  0
 19 20  2  0
 20  6  1  0
 12  7  1  0
 20 15  1  0
M  END
>  <zinc_id>  (341) 
ZINC000001530611

>  <smiles>  (341) 
CNCCCN1c2ccccc2CCc2ccccc21

$$$$

     RDKit          3D

 28 31  0  0  0  0  0  0  0  0999 V2000
   -1.9066    0.0729   -1.6569 C   0  0  0  0  0  0  0  0  0  0  0  0
   -1.7081    0.4168   -0.2252 C   0  0  2  0  0  0  0  0  0  0  0  0
   -0.7672    1.4883   -0.1739 C   0  0  0  0  0  0  0  0  0  0  0  0
    0.2450    1.2761    1.1127 C   0  0  2  0  0  0  0  0  0  0  0  0
    1.1042    2.4577    0.6830 O   0  0  0  0  0  0  0  0  0  0  0  0
    1.1966    0.1427    0.4282 C   0  0  1  0  0  0  0  0  0  0  0  0
    1.4039   -0.6210    1.5256 F   0  0  0  0  0  0  0  0  0  0  0  0
    0.2851   -0.6447   -0.6348 C   0  0  1  0  0  0  0  0  0  0  0  0
    0.9547   -2.0892   -0.3138 C   0  0  0  0  0  0  0  0  0  0  0  0
    2.1443   -1.8678   -1.2491 C   0  0  0  0  0  0  0  0  0  0  0  0
    2.8730   -0.6219   -0.9602 C   0  0  0  0  0  0  0  0  0  0  0  0
    4.2054   -0.6850   -1.0170 C   0  0  0  0  0  0  0  0  0  0  0  0
    5.0419   -0.1946    0.0900 C   0  0  0  0  0  0  0  0  0  0  0  0
    6.2340   -0.5336    0.2341 O   0  0  0  0  0  0  0  0  0  0  0  0
    4.2388    0.4405    1.1499 C   0  0  0  0  0  0  0  0  0  0  0  0
    3.2934    1.2250    0.6262 C   0  0  0  0  0  0  0  0  0  0  0  0
    2.3136    0.6014   -0.3008 C   0  0  2  0  0  0  0  0  0  0  0  0
    1.9611    1.5133   -1.4596 C   0  0  0  0  0  0  0  0  0  0  0  0
   -0.9475   -0.8161    0.5069 C   0  0  2  0  0  0  0  0  0  0  0  0
   -1.8624   -1.8117   -0.3707 C   0  0  0  0  0  0  0  0  0  0  0  0
   -3.2607   -1.3591    0.3881 C   0  0  1  0  0  0  0  0  0  0  0  0
   -2.6826   -1.7721    1.7328 O   0  0  0  0  0  0  0  0  0  0  0  0
   -2.8755    0.2306    0.5515 C   0  0  1  0  0  0  0  0  0  0  0  0
   -2.8854    0.5559    1.8692 O   0  0  0  0  0  0  0  0  0  0  0  0
   -4.0256    0.9293   -0.1120 C   0  0  0  0  0  0  0  0  0  0  0  0
   -3.7495    2.0831   -0.4596 O   0  0  0  0  0  0  0  0  0  0  0  0
   -5.1159    0.3680   -0.8412 C   0  0  0  0  0  0  0  0  0  0  0  0
   -5.7081   -0.7850   -0.5658 O   0  0  0  0  0  0  0  0  0  0  0  0
  2  1  1  6
  2  3  1  0
  3  4  1  0
  4  5  1  6
  4  6  1  0
  6  7  1  1
  6  8  1  0
  8  9  1  1
  9 10  1  0
 10 11  1  0
 11 12  2  0
 12 13  1  0
 13 14  2  0
 13 15  1  0
 15 16  2  0
 16 17  1  0
 17 18  1  6
  8 19  1  0
 19 20  1  6
 20 21  1  0
 21 22  1  1
 21 23  1  0
 23 24  1  1
 23 25  1  0
 25 26  2  0
 25 27  1  0
 27 28  1  0
 19  2  1  0
 23  2  1  0
 17  6  1  0
 17 11  1  0
M  END
>  <zinc_id>  (342) 
ZINC000003882036

>  <smiles>  (342) 
C[C@]12C[C@H](O)[C@@]3(F)[C@@H](CCC4=CC(=O)C=C[C@@]43C)[C@@H]1C[C@@H](O)[C@]2(O)C(=O)CO

$$$$

     RDKit          3D

 67 72  0  0  0  0  0  0  0  0999 V2000
   11.4316    4.7659   -0.3093 C   0  0  0  0  0  0  0  0  0  0  0  0
   11.4468    3.5873    0.3783 O   0  0  0  0  0  0  0  0  0  0  0  0
   10.2611    3.0566    0.8987 C   0  0  0  0  0  0  0  0  0  0  0  0
    9.0830    3.4755    0.2916 C   0  0  0  0  0  0  0  0  0  0  0  0
    8.0558    2.5559    0.1101 C   0  0  0  0  0  0  0  0  0  0  0  0
    7.9918    1.3813    0.8601 C   0  0  0  0  0  0  0  0  0  0  0  0
    6.6381    0.8711    1.0201 C   0  0  0  0  0  0  0  0  0  0  0  0
    6.6857   -0.7759    0.9052 C   0  0  2  0  0  0  0  0  0  0  0  0
    7.1767   -0.8054   -0.6511 C   0  0  0  0  0  0  0  0  0  0  0  0
    8.5405   -0.6280   -0.8112 C   0  0  0  0  0  0  0  0  0  0  0  0
    9.4081   -1.5178   -1.3627 C   0  0  0  0  0  0  0  0  0  0  0  0
   10.7666   -1.2206   -1.5245 O   0  0  0  0  0  0  0  0  0  0  0  0
   11.3321   -0.2235   -0.6787 C   0  0  0  0  0  0  0  0  0  0  0  0
    8.9058   -2.6996   -1.8729 C   0  0  0  0  0  0  0  0  0  0  0  0
    9.7415   -3.8231   -1.8486 O   0  0  0  0  0  0  0  0  0  0  0  0
   10.3334   -4.2753   -0.6323 C   0  0  0  0  0  0  0  0  0  0  0  0
    7.5473   -2.7802   -2.0373 C   0  0  0  0  0  0  0  0  0  0  0  0
    6.7163   -1.9284   -1.3353 C   0  0  0  0  0  0  0  0  0  0  0  0
    5.2726   -2.3211   -1.3214 C   0  0  0  0  0  0  0  0  0  0  0  0
    4.8744   -2.1828    0.1420 C   0  0  0  0  0  0  0  0  0  0  0  0
    5.1503   -0.8364    0.5134 N   0  0  1  0  0  0  0  0  0  0  0  0
    4.5255   -0.5398    1.7814 C   0  0  0  0  0  0  0  0  0  0  0  0
    4.9896    0.1518   -0.4831 C   0  0  0  0  0  0  0  0  0  0  0  0
    3.7996    0.1323   -1.3191 C   0  0  0  0  0  0  0  0  0  0  0  0
    2.8315    1.1755   -0.8867 C   0  0  0  0  0  0  0  0  0  0  0  0
    2.9931    2.4082   -1.1139 O   0  0  0  0  0  0  0  0  0  0  0  0
    1.9458    0.8510    0.1316 O   0  0  0  0  0  0  0  0  0  0  0  0
    1.5155    1.7810    1.1140 C   0  0  0  0  0  0  0  0  0  0  0  0
    0.6536    0.9918    2.0924 C   0  0  0  0  0  0  0  0  0  0  0  0
   -0.6423    0.5983    1.4158 C   0  0  0  0  0  0  0  0  0  0  0  0
   -0.8145    1.5371    0.2312 C   0  0  0  0  0  0  0  0  0  0  0  0
   -1.0315    0.6703   -1.0048 C   0  0  0  0  0  0  0  0  0  0  0  0
   -2.2944    0.0627   -0.7856 O   0  0  0  0  0  0  0  0  0  0  0  0
   -2.3506   -1.1416   -0.0972 C   0  0  0  0  0  0  0  0  0  0  0  0
   -1.5291   -2.0246   -0.4669 O   0  0  0  0  0  0  0  0  0  0  0  0
   -3.5326   -1.4392    0.7563 C   0  0  0  0  0  0  0  0  0  0  0  0
   -4.5083   -2.3268    0.0465 C   0  0  0  0  0  0  0  0  0  0  0  0
   -5.5527   -1.5872   -0.6461 N   0  0  1  0  0  0  0  0  0  0  0  0
   -5.0233   -0.9043   -1.7728 C   0  0  0  0  0  0  0  0  0  0  0  0
   -6.6401   -2.4519   -0.8469 C   0  0  0  0  0  0  0  0  0  0  0  0
   -7.4147   -1.8503   -2.0163 C   0  0  0  0  0  0  0  0  0  0  0  0
   -7.6322   -0.4669   -1.5109 C   0  0  0  0  0  0  0  0  0  0  0  0
   -8.6686    0.2014   -2.1554 C   0  0  0  0  0  0  0  0  0  0  0  0
   -8.9484    1.5365   -1.9034 C   0  0  0  0  0  0  0  0  0  0  0  0
  -10.2264    2.0688   -2.1125 O   0  0  0  0  0  0  0  0  0  0  0  0
  -11.1680    1.7598   -1.0862 C   0  0  0  0  0  0  0  0  0  0  0  0
   -7.9954    2.1938   -1.1343 C   0  0  0  0  0  0  0  0  0  0  0  0
   -8.3290    3.4853   -0.7191 O   0  0  0  0  0  0  0  0  0  0  0  0
   -7.8012    4.5863   -1.4465 C   0  0  0  0  0  0  0  0  0  0  0  0
   -7.0625    1.4594   -0.4084 C   0  0  0  0  0  0  0  0  0  0  0  0
   -7.2236    0.0694   -0.3656 C   0  0  0  0  0  0  0  0  0  0  0  0
   -5.9333   -0.4942    0.4353 C   0  0  1  0  0  0  0  0  0  0  0  0
   -6.7777   -1.5855    1.3512 C   0  0  0  0  0  0  0  0  0  0  0  0
   -8.1381   -1.1440    1.5084 C   0  0  0  0  0  0  0  0  0  0  0  0
   -8.5642    0.0339    2.1136 C   0  0  0  0  0  0  0  0  0  0  0  0
   -9.8991    0.4110    1.9978 C   0  0  0  0  0  0  0  0  0  0  0  0
  -10.7713   -0.3367    1.2151 C   0  0  0  0  0  0  0  0  0  0  0  0
  -11.6977    0.2645    0.3556 O   0  0  0  0  0  0  0  0  0  0  0  0
  -12.5418    1.3062    0.7772 C   0  0  0  0  0  0  0  0  0  0  0  0
  -10.4339   -1.6634    0.9687 C   0  0  0  0  0  0  0  0  0  0  0  0
  -11.2360   -2.4577    0.1415 O   0  0  0  0  0  0  0  0  0  0  0  0
  -11.7275   -3.7108    0.5615 C   0  0  0  0  0  0  0  0  0  0  0  0
   -9.1703   -2.0748    1.3823 C   0  0  0  0  0  0  0  0  0  0  0  0
    9.0065    1.2711    1.8077 C   0  0  0  0  0  0  0  0  0  0  0  0
   10.2540    1.8474    1.5864 C   0  0  0  0  0  0  0  0  0  0  0  0
   11.4379    1.1044    1.6752 O   0  0  0  0  0  0  0  0  0  0  0  0
   11.9678    0.5648    0.4661 C   0  0  0  0  0  0  0  0  0  0  0  0
  1  2  1  0
  2  3  1  0
  3  4  2  0
  4  5  1  0
  5  6  2  0
  6  7  1  0
  8  7  1  6
  8  9  1  0
  9 10  2  0
 10 11  1  0
 11 12  1  0
 12 13  1  0
 11 14  2  0
 14 15  1  0
 15 16  1  0
 14 17  1  0
 17 18  2  0
 18 19  1  0
 19 20  1  0
 20 21  1  0
 21 22  1  1
 21 23  1  0
 23 24  1  0
 24 25  1  0
 25 26  2  0
 25 27  1  0
 27 28  1  0
 28 29  1  0
 29 30  1  0
 30 31  1  0
 31 32  1  0
 32 33  1  0
 33 34  1  0
 34 35  2  0
 34 36  1  0
 36 37  1  0
 38 37  1  1
 38 39  1  0
 38 40  1  0
 40 41  1  0
 41 42  1  0
 42 43  2  0
 43 44  1  0
 44 45  1  0
 45 46  1  0
 44 47  2  0
 47 48  1  0
 48 49  1  0
 47 50  1  0
 50 51  2  0
 51 52  1  0
 52 53  1  1
 53 54  1  0
 54 55  2  0
 55 56  1  0
 56 57  2  0
 57 58  1  0
 58 59  1  0
 57 60  1  0
 60 61  1  0
 61 62  1  0
 60 63  2  0
  6 64  1  0
 64 65  2  0
 65 66  1  0
 66 67  1  0
 65  3  1  0
 21  8  1  0
 52 38  1  0
 63 54  1  0
 18  9  1  0
 51 42  1  0
M  CHG  2  21   1  38   1
M  END
>  <zinc_id>  (343) 
ZINC000238809664

>  <smiles>  (343) 
COc1ccc(C[C@@H]2c3cc(OC)c(OC)cc3CC[N@+]2(C)CCC(=O)OCCCCCOC(=O)CC[N@@+]2(C)CCc3cc(OC)c(OC)cc3[C@H]2Cc2ccc(OC)c(OC)c2)cc1OC

$$$$

     RDKit          3D

 22 23  0  0  0  0  0  0  0  0999 V2000
    4.6500   -1.3210   -1.4948 C   0  0  0  0  0  0  0  0  0  0  0  0
    3.7790   -0.4122   -0.6807 C   0  0  0  0  0  0  0  0  0  0  0  0
    2.5790    0.0377   -1.1093 N   0  0  0  0  0  0  0  0  0  0  0  0
    1.7676    0.3155   -0.0608 C   0  0  0  0  0  0  0  0  0  0  0  0
    0.3210    0.2597    0.0392 C   0  0  0  0  0  0  0  0  0  0  0  0
   -0.2830    0.9467    1.0836 C   0  0  0  0  0  0  0  0  0  0  0  0
   -1.6689    0.9212    1.2096 C   0  0  0  0  0  0  0  0  0  0  0  0
   -2.4665    0.2210    0.3097 C   0  0  0  0  0  0  0  0  0  0  0  0
   -3.6792    0.7523   -0.0409 O   0  0  0  0  0  0  0  0  0  0  0  0
   -4.7778    0.0930   -0.5828 C   0  0  0  0  0  0  0  0  0  0  0  0
   -6.0486    0.3626    0.1782 C   0  0  0  0  0  0  0  0  0  0  0  0
   -5.8094   -0.0843    1.6121 C   0  0  0  0  0  0  0  0  0  0  0  0
   -6.2583    1.8634    0.2126 C   0  0  0  0  0  0  0  0  0  0  0  0
   -1.7813   -0.7022   -0.4710 C   0  0  0  0  0  0  0  0  0  0  0  0
   -2.5569   -1.4483   -1.4110 C   0  0  0  0  0  0  0  0  0  0  0  0
   -3.1413   -2.3322   -1.8708 N   0  0  0  0  0  0  0  0  0  0  0  0
   -0.4062   -0.7304   -0.5564 C   0  0  0  0  0  0  0  0  0  0  0  0
    2.9128    1.0587    0.9858 S   0  0  0  0  0  0  0  0  0  0  0  0
    4.3438    0.4970    0.2109 C   0  0  0  0  0  0  0  0  0  0  0  0
    5.7202    0.4796    0.7282 C   0  0  0  0  0  0  0  0  0  0  0  0
    6.0117   -0.1827    1.7676 O   0  0  0  0  0  0  0  0  0  0  0  0
    6.7925    0.8716   -0.0590 O   0  0  0  0  0  0  0  0  0  0  0  0
  1  2  1  0
  2  3  1  0
  3  4  2  0
  4  5  1  0
  5  6  2  0
  6  7  1  0
  7  8  2  0
  8  9  1  0
  9 10  1  0
 10 11  1  0
 11 12  1  0
 11 13  1  0
  8 14  1  0
 14 15  1  0
 15 16  3  0
 14 17  2  0
  4 18  1  0
 18 19  1  0
 19 20  1  0
 20 21  2  0
 20 22  1  0
 19  2  2  0
 17  5  1  0
M  END
>  <zinc_id>  (344) 
ZINC000000005423

>  <smiles>  (344) 
Cc1nc(-c2ccc(OCC(C)C)c(C#N)c2)sc1C(=O)O

$$$$

     RDKit          3D

 36 41  0  0  0  0  0  0  0  0999 V2000
   -2.0831   -0.3434    2.7704 C   0  0  0  0  0  0  0  0  0  0  0  0
   -2.6166    0.1502    1.4529 C   0  0  0  0  0  0  0  0  0  0  0  0
   -1.6117    0.0089    0.3520 C   0  0  0  0  0  0  0  0  0  0  0  0
   -0.5278    0.8731    0.2519 C   0  0  0  0  0  0  0  0  0  0  0  0
    0.6329    0.3962   -0.3150 C   0  0  0  0  0  0  0  0  0  0  0  0
    0.8327   -0.9419   -0.6169 C   0  0  0  0  0  0  0  0  0  0  0  0
   -0.3051   -1.7349   -0.7115 C   0  0  0  0  0  0  0  0  0  0  0  0
   -1.5248   -1.2236   -0.2849 C   0  0  0  0  0  0  0  0  0  0  0  0
   -2.7709   -1.8243   -0.6586 N   0  0  0  0  0  0  0  0  0  0  0  0
   -3.2496   -1.6066   -1.9946 C   0  0  0  0  0  0  0  0  0  0  0  0
   -4.7370   -1.4787   -2.1006 C   0  0  0  0  0  0  0  0  0  0  0  0
   -5.4852   -1.7827   -0.8502 C   0  0  0  0  0  0  0  0  0  0  0  0
   -5.9753   -0.6357   -0.1428 N   0  0  0  0  0  0  0  0  0  0  0  0
   -7.4100   -0.4397   -0.3392 C   0  0  0  0  0  0  0  0  0  0  0  0
   -7.8619    0.6598    0.6139 C   0  0  0  0  0  0  0  0  0  0  0  0
   -7.2820    1.8449    0.1636 O   0  0  0  0  0  0  0  0  0  0  0  0
   -6.3923    1.6477   -0.8797 C   0  0  0  0  0  0  0  0  0  0  0  0
   -5.3454    0.6082   -0.5802 C   0  0  0  0  0  0  0  0  0  0  0  0
   -4.9081   -2.8532    0.0044 C   0  0  0  0  0  0  0  0  0  0  0  0
   -3.4205   -2.8061    0.1641 C   0  0  0  0  0  0  0  0  0  0  0  0
    2.1481   -1.5820   -0.3620 C   0  0  0  0  0  0  0  0  0  0  0  0
    2.1945   -2.0944    1.0691 C   0  0  0  0  0  0  0  0  0  0  0  0
    2.3144   -2.7955   -1.2569 C   0  0  0  0  0  0  0  0  0  0  0  0
    3.2495   -0.6228   -0.5626 C   0  0  0  0  0  0  0  0  0  0  0  0
    4.5745   -0.8319   -0.3688 N   0  0  0  0  0  0  0  0  0  0  0  0
    5.2443    0.3218   -0.3613 C   0  0  0  0  0  0  0  0  0  0  0  0
    6.5684    0.6843   -0.1673 C   0  0  0  0  0  0  0  0  0  0  0  0
    6.8925    1.9247    0.3510 C   0  0  0  0  0  0  0  0  0  0  0  0
    8.2573    2.3406    0.5609 C   0  0  0  0  0  0  0  0  0  0  0  0
    9.3516    2.7367    0.6191 N   0  0  0  0  0  0  0  0  0  0  0  0
    5.8750    2.8296    0.5993 C   0  0  0  0  0  0  0  0  0  0  0  0
    4.6576    2.6453   -0.0396 C   0  0  0  0  0  0  0  0  0  0  0  0
    4.3389    1.3663   -0.4792 C   0  0  0  0  0  0  0  0  0  0  0  0
    3.1035    0.7411   -0.5948 C   0  0  0  0  0  0  0  0  0  0  0  0
    1.7451    1.2971   -0.5567 C   0  0  0  0  0  0  0  0  0  0  0  0
    1.5264    2.5207   -0.8099 O   0  0  0  0  0  0  0  0  0  0  0  0
  1  2  1  0
  2  3  1  0
  3  4  2  0
  4  5  1  0
  5  6  2  0
  6  7  1  0
  7  8  2  0
  8  9  1  0
  9 10  1  0
 10 11  1  0
 11 12  1  0
 12 13  1  0
 13 14  1  0
 14 15  1  0
 15 16  1  0
 16 17  1  0
 17 18  1  0
 12 19  1  0
 19 20  1  0
  6 21  1  0
 21 22  1  0
 21 23  1  0
 21 24  1  0
 24 25  1  0
 25 26  1  0
 26 27  2  0
 27 28  1  0
 28 29  1  0
 29 30  3  0
 28 31  2  0
 31 32  1  0
 32 33  2  0
 33 34  1  0
 34 35  1  0
 35 36  2  0
  8  3  1  0
 20  9  1  0
 34 24  2  0
 35  5  1  0
 18 13  1  0
 33 26  1  0
M  END
>  <zinc_id>  (345) 
ZINC000066166864

>  <smiles>  (345) 
CCc1cc2c(cc1N1CCC(N3CCOCC3)CC1)C(C)(C)c1[nH]c3cc(C#N)ccc3c1C2=O

$$$$

     RDKit          3D

 35 36  0  0  0  0  0  0  0  0999 V2000
   -2.3187    2.3342   -2.1571 O   0  0  0  0  0  0  0  0  0  0  0  0
   -2.2166    2.2137   -2.1808 S   0  0  0  0  0  0  0  0  0  0  0  0
   -2.7411    3.4601   -1.6773 O   0  0  0  0  0  0  0  0  0  0  0  0
   -2.8102    1.6429   -3.6173 O   0  0  0  0  0  0  0  0  0  0  0  0
   -1.5496    1.1490   -1.1482 O   0  0  0  0  0  0  0  0  0  0  0  0
   -2.2497    1.3373    0.1637 C   0  0  1  0  0  0  0  0  0  0  0  0
   -3.7738    0.8195   -0.4540 C   0  0  2  0  0  0  0  0  0  0  0  0
   -4.4334    0.8685    0.9306 O   0  0  0  0  0  0  0  0  0  0  0  0
   -3.5060   -0.6696   -0.5041 O   0  0  0  0  0  0  0  0  0  0  0  0
   -2.4236   -0.8771   -1.2406 C   0  0  0  0  0  0  0  0  0  0  0  0
   -1.2696   -1.1680   -0.1333 C   0  0  1  0  0  0  0  0  0  0  0  0
   -0.1170   -0.3575   -0.7194 O   0  0  0  0  0  0  0  0  0  0  0  0
    0.8847   -0.9765    0.2643 C   0  0  2  0  0  0  0  0  0  0  0  0
    0.9584    0.2783    1.1089 O   0  0  0  0  0  0  0  0  0  0  0  0
    1.9144   -0.5012    1.7939 C   0  0  0  0  0  0  0  0  0  0  0  0
    3.0457    0.6207    1.5000 C   0  0  1  0  0  0  0  0  0  0  0  0
    4.1932   -0.3694    1.5139 O   0  0  0  0  0  0  0  0  0  0  0  0
    2.9886    0.7105   -0.2079 C   0  0  2  0  0  0  0  0  0  0  0  0
    1.7671    1.5959   -0.3048 O   0  0  0  0  0  0  0  0  0  0  0  0
    2.3820    3.1334   -0.1349 S   0  0  0  0  0  0  0  0  0  0  0  0
    1.2484    4.0149    0.2708 O   0  0  0  0  0  0  0  0  0  0  0  0
    3.5614    3.2199    0.7676 O   0  0  0  0  0  0  0  0  0  0  0  0
    2.8904    3.6188   -1.6690 O   0  0  0  0  0  0  0  0  0  0  0  0
    2.2542   -0.7171   -0.7385 C   0  0  1  0  0  0  0  0  0  0  0  0
    3.1282   -1.6557    0.0549 O   0  0  0  0  0  0  0  0  0  0  0  0
    3.3941   -3.0242   -0.8123 S   0  0  0  0  0  0  0  0  0  0  0  0
    3.0247   -4.2101    0.0520 O   0  0  0  0  0  0  0  0  0  0  0  0
    2.5774   -2.9920   -2.0533 O   0  0  0  0  0  0  0  0  0  0  0  0
    5.0404   -3.1488   -1.1091 O   0  0  0  0  0  0  0  0  0  0  0  0
   -1.6749    0.0115    1.0443 C   0  0  2  0  0  0  0  0  0  0  0  0
   -2.9780   -0.6087    1.4506 O   0  0  0  0  0  0  0  0  0  0  0  0
   -2.7917   -2.0417    2.1424 S   0  0  0  0  0  0  0  0  0  0  0  0
   -2.3463   -1.8730    3.5524 O   0  0  0  0  0  0  0  0  0  0  0  0
   -4.1731   -2.6669    2.1999 O   0  0  0  0  0  0  0  0  0  0  0  0
   -1.8801   -3.1716    1.2966 O   0  0  0  0  0  0  0  0  0  0  0  0
  1  2  2  0
  2  3  2  0
  2  4  1  0
  2  5  1  0
  6  5  1  6
  6  7  1  0
  7  8  1  1
  7  9  1  0
  9 10  1  0
 10 11  1  0
 11 12  1  6
 13 12  1  6
 13 14  1  0
 14 15  1  0
 15 16  1  0
 16 17  1  6
 16 18  1  0
 18 19  1  1
 19 20  1  0
 20 21  2  0
 20 22  2  0
 20 23  1  0
 18 24  1  0
 24 25  1  1
 25 26  1  0
 26 27  2  0
 26 28  2  0
 26 29  1  0
 11 30  1  0
 30 31  1  1
 31 32  1  0
 32 33  2  0
 32 34  2  0
 32 35  1  0
 30  6  1  0
 24 13  1  0
M  END
>  <zinc_id>  (346) 
ZINC000014879975

>  <smiles>  (346) 
O=S(=O)(O)O[C@H]1[C@H](O)CO[C@@H](O[C@@H]2CO[C@@H](O)[C@H](OS(=O)(=O)O)[C@H]2OS(=O)(=O)O)[C@@H]1OS(=O)(=O)O

$$$$

     RDKit          3D

 29 30  0  0  0  0  0  0  0  0999 V2000
    1.4347   -3.5293   -0.8001 C   0  0  0  0  0  0  0  0  0  0  0  0
    1.0099   -2.6565    0.3109 C   0  0  1  0  0  0  0  0  0  0  0  0
    0.4897   -3.4672    1.3304 O   0  0  0  0  0  0  0  0  0  0  0  0
    2.1615   -1.8373    0.8718 C   0  0  0  0  0  0  0  0  0  0  0  0
    3.5270   -1.7565   -0.2532 S   0  0  0  0  0  0  0  0  0  0  0  0
    4.3642   -3.0041   -0.1145 O   0  0  0  0  0  0  0  0  0  0  0  0
    3.0257   -1.7335   -1.6690 O   0  0  0  0  0  0  0  0  0  0  0  0
    4.5032   -0.3504    0.0539 C   0  0  0  0  0  0  0  0  0  0  0  0
    4.1921    0.6267    0.9615 C   0  0  0  0  0  0  0  0  0  0  0  0
    4.6977    1.9159    0.8491 C   0  0  0  0  0  0  0  0  0  0  0  0
    5.4351    2.2396   -0.2830 C   0  0  0  0  0  0  0  0  0  0  0  0
    5.3974    3.4814   -0.8352 F   0  0  0  0  0  0  0  0  0  0  0  0
    6.0843    1.1755   -0.8949 C   0  0  0  0  0  0  0  0  0  0  0  0
    5.5901   -0.1165   -0.7762 C   0  0  0  0  0  0  0  0  0  0  0  0
   -0.0352   -1.7084   -0.1794 C   0  0  0  0  0  0  0  0  0  0  0  0
    0.3382   -0.7837   -0.9379 O   0  0  0  0  0  0  0  0  0  0  0  0
   -1.2662   -1.5491    0.4963 N   0  0  0  0  0  0  0  0  0  0  0  0
   -2.2071   -0.5803    0.0207 C   0  0  0  0  0  0  0  0  0  0  0  0
   -1.8643    0.3591   -0.9428 C   0  0  0  0  0  0  0  0  0  0  0  0
   -2.5815    1.5352   -1.0493 C   0  0  0  0  0  0  0  0  0  0  0  0
   -3.7913    1.6402   -0.4054 C   0  0  0  0  0  0  0  0  0  0  0  0
   -4.3537    2.9638   -0.2715 C   0  0  0  0  0  0  0  0  0  0  0  0
   -4.7254    4.0593   -0.1149 N   0  0  0  0  0  0  0  0  0  0  0  0
   -4.2350    0.5963    0.3852 C   0  0  0  0  0  0  0  0  0  0  0  0
   -5.6214    0.7247    0.9298 C   0  0  0  0  0  0  0  0  0  0  0  0
   -6.4349    1.3140   -0.0056 F   0  0  0  0  0  0  0  0  0  0  0  0
   -6.0954   -0.5362    1.2034 F   0  0  0  0  0  0  0  0  0  0  0  0
   -5.6329    1.4368    2.1209 F   0  0  0  0  0  0  0  0  0  0  0  0
   -3.4065   -0.4594    0.7074 C   0  0  0  0  0  0  0  0  0  0  0  0
  2  1  1  6
  2  3  1  0
  2  4  1  0
  4  5  1  0
  5  6  2  0
  5  7  2  0
  5  8  1  0
  8  9  2  0
  9 10  1  0
 10 11  2  0
 11 12  1  0
 11 13  1  0
 13 14  2  0
  2 15  1  0
 15 16  2  0
 15 17  1  0
 17 18  1  0
 18 19  2  0
 19 20  1  0
 20 21  2  0
 21 22  1  0
 22 23  3  0
 21 24  1  0
 24 25  1  0
 25 26  1  0
 25 27  1  0
 25 28  1  0
 24 29  2  0
 14  8  1  0
 29 18  1  0
M  END
>  <zinc_id>  (347) 
ZINC000000897408

>  <smiles>  (347) 
C[C@@](O)(CS(=O)(=O)c1ccc(F)cc1)C(=O)Nc1ccc(C#N)c(C(F)(F)F)c1

$$$$

     RDKit          3D

 16 16  0  0  0  0  0  0  0  0999 V2000
    4.8840   -0.7926   -0.2721 C   0  0  0  0  0  0  0  0  0  0  0  0
    3.9126    0.2036    0.1654 N   0  0  0  0  0  0  0  0  0  0  0  0
    4.3191    1.3823    0.9006 C   0  0  0  0  0  0  0  0  0  0  0  0
    2.5606    0.2015   -0.3114 C   0  0  0  0  0  0  0  0  0  0  0  0
    2.2981    1.0974   -1.1723 O   0  0  0  0  0  0  0  0  0  0  0  0
    1.5482    0.0536    0.6441 O   0  0  0  0  0  0  0  0  0  0  0  0
    0.3196   -0.3344    0.1584 C   0  0  0  0  0  0  0  0  0  0  0  0
    0.2557   -1.5164   -0.5708 C   0  0  0  0  0  0  0  0  0  0  0  0
   -1.0087   -2.0493   -0.7824 C   0  0  0  0  0  0  0  0  0  0  0  0
   -2.1217   -1.3470   -0.4160 C   0  0  0  0  0  0  0  0  0  0  0  0
   -2.0044   -0.0962    0.1795 C   0  0  0  0  0  0  0  0  0  0  0  0
   -3.2169    0.5537    0.4854 N   0  0  0  0  0  0  0  0  0  0  0  0
   -3.9762   -0.3784    1.3182 C   0  0  0  0  0  0  0  0  0  0  0  0
   -3.9343    0.7332   -0.7660 C   0  0  0  0  0  0  0  0  0  0  0  0
   -3.0574    1.7841    1.2098 C   0  0  0  0  0  0  0  0  0  0  0  0
   -0.7782    0.5049    0.0619 C   0  0  0  0  0  0  0  0  0  0  0  0
  1  2  1  0
  2  3  1  0
  2  4  1  0
  4  5  2  0
  4  6  1  0
  6  7  1  0
  7  8  2  0
  8  9  1  0
  9 10  2  0
 10 11  1  0
 11 12  1  0
 12 13  1  0
 12 14  1  0
 12 15  1  0
 11 16  2  0
 16  7  1  0
M  CHG  1  12   1
M  END
>  <zinc_id>  (348) 
ZINC000000001792

>  <smiles>  (348) 
CN(C)C(=O)Oc1cccc([N+](C)(C)C)c1

$$$$

     RDKit          3D

 21 22  0  0  0  0  0  0  0  0999 V2000
    5.0507    0.1719    0.7076 C   0  0  0  0  0  0  0  0  0  0  0  0
    4.8782   -0.7794   -0.1988 N   0  0  0  0  0  0  0  0  0  0  0  0
    5.0964   -2.1096    0.3674 C   0  0  0  0  0  0  0  0  0  0  0  0
    3.4810   -0.7630   -0.6281 C   0  0  0  0  0  0  0  0  0  0  0  0
    2.6753   -1.2068    0.5600 C   0  0  0  0  0  0  0  0  0  0  0  0
    1.7176   -0.2149    0.9266 O   0  0  0  0  0  0  0  0  0  0  0  0
    0.5188   -0.3020    0.2528 C   0  0  0  0  0  0  0  0  0  0  0  0
    0.4445   -0.4494   -0.9384 O   0  0  0  0  0  0  0  0  0  0  0  0
   -0.7837    0.1227    1.1334 C   0  0  2  0  0  0  0  0  0  0  0  0
   -1.8963   -0.3394    0.0133 C   0  0  0  0  0  0  0  0  0  0  0  0
   -3.1190   -0.3084    0.6904 C   0  0  0  0  0  0  0  0  0  0  0  0
   -4.1437   -1.1793    0.4687 C   0  0  0  0  0  0  0  0  0  0  0  0
   -3.8878   -2.3346   -0.2176 C   0  0  0  0  0  0  0  0  0  0  0  0
   -2.6151   -2.5716   -0.6747 C   0  0  0  0  0  0  0  0  0  0  0  0
   -1.6582   -1.6451   -0.4218 C   0  0  0  0  0  0  0  0  0  0  0  0
   -0.7653    1.7096    0.6578 C   0  0  0  0  0  0  0  0  0  0  0  0
   -0.2900    2.2950    1.8433 O   0  0  0  0  0  0  0  0  0  0  0  0
    0.1140    1.9485   -0.4463 C   0  0  0  0  0  0  0  0  0  0  0  0
   -0.6160    2.9270   -1.3276 C   0  0  0  0  0  0  0  0  0  0  0  0
   -2.0599    2.8937   -0.9082 C   0  0  0  0  0  0  0  0  0  0  0  0
   -2.1418    2.1350    0.3901 C   0  0  0  0  0  0  0  0  0  0  0  0
  1  2  1  0
  2  3  1  0
  2  4  1  0
  4  5  1  0
  5  6  1  0
  6  7  1  0
  7  8  2  0
  9  7  1  6
  9 10  1  0
 10 11  2  0
 11 12  1  0
 12 13  2  0
 13 14  1  0
 14 15  2  0
  9 16  1  0
 16 17  1  0
 16 18  1  0
 18 19  1  0
 19 20  1  0
 20 21  1  0
 15 10  1  0
 21 16  1  0
M  END
>  <zinc_id>  (349) 
ZINC000000000196

>  <smiles>  (349) 
CN(C)CCOC(=O)[C@H](c1ccccc1)C1(O)CCCC1

$$$$

     RDKit          3D

 18 19  0  0  0  0  0  0  0  0999 V2000
   -3.5662   -1.5264    1.3681 C   0  0  0  0  0  0  0  0  0  0  0  0
   -3.0064    0.0414    1.4583 C   0  0  2  0  0  0  0  0  0  0  0  0
   -4.1453    0.5696    0.4065 C   0  0  0  0  0  0  0  0  0  0  0  0
   -5.3139    0.2565    0.7500 O   0  0  0  0  0  0  0  0  0  0  0  0
   -3.9345    1.9540    0.3104 O   0  0  0  0  0  0  0  0  0  0  0  0
   -1.9382   -0.2462    0.2539 C   0  0  0  0  0  0  0  0  0  0  0  0
   -1.6917    0.8771   -0.5321 C   0  0  0  0  0  0  0  0  0  0  0  0
   -0.7389    0.6902   -1.5288 C   0  0  0  0  0  0  0  0  0  0  0  0
    0.2230   -0.2904   -1.3223 C   0  0  0  0  0  0  0  0  0  0  0  0
    0.3344   -0.8745   -0.0658 C   0  0  0  0  0  0  0  0  0  0  0  0
    1.5562   -1.3815    0.3158 O   0  0  0  0  0  0  0  0  0  0  0  0
    2.7367   -0.6507    0.1538 C   0  0  0  0  0  0  0  0  0  0  0  0
    2.9243    0.0223   -1.0464 C   0  0  0  0  0  0  0  0  0  0  0  0
    4.1111    0.6753   -1.3002 C   0  0  0  0  0  0  0  0  0  0  0  0
    5.0041    0.7460   -0.2427 C   0  0  0  0  0  0  0  0  0  0  0  0
    4.6568    0.4289    1.0525 C   0  0  0  0  0  0  0  0  0  0  0  0
    3.5832   -0.4174    1.2296 C   0  0  0  0  0  0  0  0  0  0  0  0
   -0.7947   -0.8743    0.7415 C   0  0  0  0  0  0  0  0  0  0  0  0
  2  1  1  6
  2  3  1  0
  3  4  2  0
  3  5  1  0
  2  6  1  0
  6  7  2  0
  7  8  1  0
  8  9  2  0
  9 10  1  0
 10 11  1  0
 11 12  1  0
 12 13  2  0
 13 14  1  0
 14 15  2  0
 15 16  1  0
 16 17  2  0
 10 18  2  0
 18  6  1  0
 17 12  1  0
M  END
>  <zinc_id>  (350) 
ZINC000000000301

>  <smiles>  (350) 
C[C@H](C(=O)O)c1cccc(Oc2ccccc2)c1

$$$$

     RDKit          3D

 18 18  0  0  0  0  0  0  0  0999 V2000
   -3.1744    1.0976   -0.4563 C   0  0  0  0  0  0  0  0  0  0  0  0
   -3.2988    1.0654   -0.5011 C   0  0  0  0  0  0  0  0  0  0  0  0
   -4.4709    2.0492   -0.5205 C   0  0  0  0  0  0  0  0  0  0  0  0
   -3.6371   -0.1604    0.2601 N   0  0  0  0  0  0  0  0  0  0  0  0
   -3.1278   -1.3478   -0.3522 C   0  0  0  0  0  0  0  0  0  0  0  0
   -2.1630   -1.8677    0.8901 C   0  0  1  0  0  0  0  0  0  0  0  0
   -1.7619   -3.1248    0.1267 O   0  0  0  0  0  0  0  0  0  0  0  0
   -0.8876   -1.0145    0.3632 C   0  0  0  0  0  0  0  0  0  0  0  0
   -0.0146   -0.6482    1.3578 C   0  0  0  0  0  0  0  0  0  0  0  0
    1.2215   -0.1611    0.9614 C   0  0  0  0  0  0  0  0  0  0  0  0
    1.6213   -0.2852   -0.3559 C   0  0  0  0  0  0  0  0  0  0  0  0
    2.9573   -0.0787   -0.7913 N   0  0  0  0  0  0  0  0  0  0  0  0
    3.9591    1.1657   -0.1557 S   0  0  0  0  0  0  0  0  0  0  0  0
    2.9942    2.4916    0.5393 C   0  0  0  0  0  0  0  0  0  0  0  0
    4.7909    1.7267   -1.2867 O   0  0  0  0  0  0  0  0  0  0  0  0
    4.9083    0.6294    0.8885 O   0  0  0  0  0  0  0  0  0  0  0  0
    0.6290   -0.4498   -1.3036 C   0  0  0  0  0  0  0  0  0  0  0  0
   -0.5455   -1.0873   -0.9247 C   0  0  0  0  0  0  0  0  0  0  0  0
  1  2  1  0
  2  3  1  0
  2  4  1  0
  4  5  1  0
  6  5  1  6
  6  7  1  0
  6  8  1  0
  8  9  2  0
  9 10  1  0
 10 11  2  0
 11 12  1  0
 12 13  1  0
 13 14  1  0
 13 15  2  0
 13 16  2  0
 11 17  1  0
 17 18  2  0
 18  8  1  0
M  END
>  <zinc_id>  (351) 
ZINC000000004166

>  <smiles>  (351) 
CC(C)NC[C@@H](O)c1ccc(NS(C)(=O)=O)cc1

$$$$

     RDKit          3D

 15 16  0  0  0  0  0  0  0  0999 V2000
   -3.3790    0.1661   -0.6094 C   0  0  0  0  0  0  0  0  0  0  0  0
   -2.2463    0.4227   -0.2348 N   0  0  0  0  0  0  0  0  0  0  0  0
   -1.2727    1.3060   -0.8064 C   0  0  0  0  0  0  0  0  0  0  0  0
   -1.4681    1.9984   -1.8327 O   0  0  0  0  0  0  0  0  0  0  0  0
   -0.2172    1.6093    0.2114 C   0  0  0  0  0  0  0  0  0  0  0  0
   -0.1661    0.2866    0.9555 C   0  0  2  0  0  0  0  0  0  0  0  0
    0.2557    0.4794    2.3872 C   0  0  0  0  0  0  0  0  0  0  0  0
    0.8276   -0.5854    0.2546 C   0  0  0  0  0  0  0  0  0  0  0  0
    0.8694   -0.6650   -1.1325 C   0  0  0  0  0  0  0  0  0  0  0  0
    2.0457   -0.9502   -1.8142 C   0  0  0  0  0  0  0  0  0  0  0  0
    3.2424   -0.8491   -1.1176 C   0  0  0  0  0  0  0  0  0  0  0  0
    3.1905   -1.1347    0.2375 C   0  0  0  0  0  0  0  0  0  0  0  0
    1.9832   -1.0089    0.8992 C   0  0  0  0  0  0  0  0  0  0  0  0
   -1.5418   -0.2374    0.8242 C   0  0  0  0  0  0  0  0  0  0  0  0
   -2.1233   -0.8379    1.7780 O   0  0  0  0  0  0  0  0  0  0  0  0
  1  2  1  0
  2  3  1  0
  3  4  2  0
  3  5  1  0
  5  6  1  0
  6  7  1  1
  6  8  1  0
  8  9  2  0
  9 10  1  0
 10 11  2  0
 11 12  1  0
 12 13  2  0
  6 14  1  0
 14 15  2  0
 14  2  1  0
 13  8  1  0
M  END
>  <zinc_id>  (352) 
ZINC000000014257

>  <smiles>  (352) 
CN1C(=O)C[C@](C)(c2ccccc2)C1=O

$$$$

     RDKit          3D

 25 27  0  0  0  0  0  0  0  0999 V2000
    1.4119   -1.8366   -1.7539 C   0  0  0  0  0  0  0  0  0  0  0  0
    0.9370   -1.5607   -0.1875 C   0  0  1  0  0  0  0  0  0  0  0  0
    2.1475   -0.5117    0.1092 C   0  0  0  0  0  0  0  0  0  0  0  0
    2.1462   -0.3361    1.4638 N   0  0  0  0  0  0  0  0  0  0  0  0
    3.1761    0.2073    2.1233 C   0  0  0  0  0  0  0  0  0  0  0  0
    4.4179    0.0319    1.6137 N   0  0  0  0  0  0  0  0  0  0  0  0
    4.5130   -0.5228    0.3821 C   0  0  0  0  0  0  0  0  0  0  0  0
    3.3954   -0.9788   -0.3074 C   0  0  0  0  0  0  0  0  0  0  0  0
    3.5117   -1.9035   -1.3078 F   0  0  0  0  0  0  0  0  0  0  0  0
   -0.1286   -0.3581   -0.5813 C   0  0  2  0  0  0  0  0  0  0  0  0
    0.2026    0.1855   -1.7459 O   0  0  0  0  0  0  0  0  0  0  0  0
   -0.0553    0.6503    0.5131 C   0  0  0  0  0  0  0  0  0  0  0  0
   -0.0102    2.0273    0.0585 N   0  0  0  0  0  0  0  0  0  0  0  0
   -0.7002    2.6035   -0.9326 C   0  0  0  0  0  0  0  0  0  0  0  0
   -1.0263    3.8797   -0.6114 N   0  0  0  0  0  0  0  0  0  0  0  0
   -0.5445    4.0819    0.6249 C   0  0  0  0  0  0  0  0  0  0  0  0
    0.2424    3.0190    0.9133 N   0  0  0  0  0  0  0  0  0  0  0  0
   -1.4030   -1.0746   -0.4529 C   0  0  0  0  0  0  0  0  0  0  0  0
   -1.6330   -1.6770    0.7807 C   0  0  0  0  0  0  0  0  0  0  0  0
   -2.9065   -1.9916    1.2201 C   0  0  0  0  0  0  0  0  0  0  0  0
   -3.9767   -1.2768    0.7082 C   0  0  0  0  0  0  0  0  0  0  0  0
   -5.0546   -0.9497    1.4811 F   0  0  0  0  0  0  0  0  0  0  0  0
   -3.7921   -0.7437   -0.5620 C   0  0  0  0  0  0  0  0  0  0  0  0
   -2.5294   -0.6421   -1.1218 C   0  0  0  0  0  0  0  0  0  0  0  0
   -2.3414   -0.3226   -2.4277 F   0  0  0  0  0  0  0  0  0  0  0  0
  2  1  1  6
  2  3  1  0
  3  4  2  0
  4  5  1  0
  5  6  2  0
  6  7  1  0
  7  8  2  0
  8  9  1  0
  2 10  1  0
 10 11  1  6
 10 12  1  0
 12 13  1  0
 13 14  1  0
 14 15  2  0
 15 16  1  0
 16 17  2  0
 10 18  1  0
 18 19  2  0
 19 20  1  0
 20 21  2  0
 21 22  1  0
 21 23  1  0
 23 24  2  0
 24 25  1  0
  8  3  1  0
 17 13  1  0
 24 18  1  0
M  END
>  <zinc_id>  (353) 
ZINC000000014864

>  <smiles>  (353) 
C[C@@H](c1ncncc1F)[C@](O)(Cn1cncn1)c1ccc(F)cc1F

$$$$

     RDKit          3D

 22 23  0  0  0  0  0  0  0  0999 V2000
    7.6802    1.4741    1.2611 C   0  0  0  0  0  0  0  0  0  0  0  0
    6.4697    1.4041    0.3730 C   0  0  0  0  0  0  0  0  0  0  0  0
    5.7630    0.1739    0.5156 O   0  0  0  0  0  0  0  0  0  0  0  0
    4.4155    0.0965    0.7841 C   0  0  0  0  0  0  0  0  0  0  0  0
    3.8787    1.0983    1.3330 O   0  0  0  0  0  0  0  0  0  0  0  0
    3.5536   -0.9178    0.2756 N   0  0  0  0  0  0  0  0  0  0  0  0
    2.1818   -0.6705   -0.0483 C   0  0  0  0  0  0  0  0  0  0  0  0
    1.2329   -1.5995    0.2991 C   0  0  0  0  0  0  0  0  0  0  0  0
   -0.0613   -1.4251   -0.1570 C   0  0  0  0  0  0  0  0  0  0  0  0
   -0.3999   -0.4282   -1.0389 C   0  0  0  0  0  0  0  0  0  0  0  0
   -1.5713   -0.4455   -1.8370 N   0  0  0  0  0  0  0  0  0  0  0  0
   -2.7930   -1.1151   -1.4464 C   0  0  0  0  0  0  0  0  0  0  0  0
   -3.6212   -0.2541   -0.5460 C   0  0  0  0  0  0  0  0  0  0  0  0
   -3.8423   -0.7607    0.7278 C   0  0  0  0  0  0  0  0  0  0  0  0
   -4.9543   -0.4094    1.4783 C   0  0  0  0  0  0  0  0  0  0  0  0
   -5.9652    0.3271    0.8769 C   0  0  0  0  0  0  0  0  0  0  0  0
   -7.2608    0.1234    1.2387 F   0  0  0  0  0  0  0  0  0  0  0  0
   -5.6077    1.0336   -0.2568 C   0  0  0  0  0  0  0  0  0  0  0  0
   -4.6005    0.5682   -1.0890 C   0  0  0  0  0  0  0  0  0  0  0  0
    0.5995    0.4703   -1.3771 C   0  0  0  0  0  0  0  0  0  0  0  0
    1.9205    0.2473   -1.0584 C   0  0  0  0  0  0  0  0  0  0  0  0
    2.9818    1.0089   -1.6268 N   0  0  0  0  0  0  0  0  0  0  0  0
  1  2  1  0
  2  3  1  0
  3  4  1  0
  4  5  2  0
  4  6  1  0
  6  7  1  0
  7  8  2  0
  8  9  1  0
  9 10  2  0
 10 11  1  0
 11 12  1  0
 12 13  1  0
 13 14  2  0
 14 15  1  0
 15 16  2  0
 16 17  1  0
 16 18  1  0
 18 19  2  0
 10 20  1  0
 20 21  2  0
 21 22  1  0
 21  7  1  0
 19 13  1  0
M  END
>  <zinc_id>  (354) 
ZINC000000016154

>  <smiles>  (354) 
CCOC(=O)Nc1ccc(NCc2ccc(F)cc2)cc1N

$$$$

     RDKit          3D

 17 18  0  0  0  0  0  0  0  0999 V2000
    5.6047   -0.1082   -1.3299 C   0  0  0  0  0  0  0  0  0  0  0  0
    4.3386    0.0180   -0.5566 C   0  0  0  0  0  0  0  0  0  0  0  0
    3.4961   -1.0187   -0.1734 C   0  0  0  0  0  0  0  0  0  0  0  0
    2.4591   -0.3831    0.5003 C   0  0  0  0  0  0  0  0  0  0  0  0
    1.1096   -0.7786    0.6484 N   0  0  0  0  0  0  0  0  0  0  0  0
   -0.1018    0.1502   -0.1640 S   0  0  0  0  0  0  0  0  0  0  0  0
    0.2246    0.1060   -1.6283 O   0  0  0  0  0  0  0  0  0  0  0  0
    0.0349    1.5953    0.2605 O   0  0  0  0  0  0  0  0  0  0  0  0
   -1.7030   -0.4706    0.1540 C   0  0  0  0  0  0  0  0  0  0  0  0
   -2.3390   -0.1530    1.3482 C   0  0  0  0  0  0  0  0  0  0  0  0
   -3.7142    0.0367    1.4190 C   0  0  0  0  0  0  0  0  0  0  0  0
   -4.4838   -0.0184    0.2636 C   0  0  0  0  0  0  0  0  0  0  0  0
   -5.5734    0.8828    0.0647 N   0  0  0  0  0  0  0  0  0  0  0  0
   -3.9175   -0.7379   -0.7817 C   0  0  0  0  0  0  0  0  0  0  0  0
   -2.5428   -0.9298   -0.8516 C   0  0  0  0  0  0  0  0  0  0  0  0
    3.0074    0.7798    0.9187 N   0  0  0  0  0  0  0  0  0  0  0  0
    4.1005    1.0295    0.2454 O   0  0  0  0  0  0  0  0  0  0  0  0
  1  2  1  0
  2  3  2  0
  3  4  1  0
  4  5  1  0
  5  6  1  0
  6  7  2  0
  6  8  2  0
  6  9  1  0
  9 10  2  0
 10 11  1  0
 11 12  2  0
 12 13  1  0
 12 14  1  0
 14 15  2  0
  4 16  2  0
 16 17  1  0
 17  2  1  0
 15  9  1  0
M  END
>  <zinc_id>  (355) 
ZINC000000089763

>  <smiles>  (355) 
Cc1cc(NS(=O)(=O)c2ccc(N)cc2)no1

$$$$

     RDKit          3D

 11 11  0  0  0  0  0  0  0  0999 V2000
    3.2724    0.2822   -1.0581 C   0  0  0  0  0  0  0  0  0  0  0  0
    2.0320    0.5510   -0.7368 N   0  0  0  0  0  0  0  0  0  0  0  0
    2.0097    0.2984    0.8158 C   0  0  2  0  0  0  0  0  0  0  0  0
    2.2063   -1.3208    0.6231 C   0  0  0  0  0  0  0  0  0  0  0  0
    0.3822    0.1551    0.9122 C   0  0  0  0  0  0  0  0  0  0  0  0
   -0.2211   -0.0574   -0.3857 C   0  0  0  0  0  0  0  0  0  0  0  0
   -0.8421    1.1159   -1.0464 C   0  0  0  0  0  0  0  0  0  0  0  0
   -2.2920    1.2880   -0.8473 C   0  0  0  0  0  0  0  0  0  0  0  0
   -3.0788    0.1497   -0.3602 C   0  0  0  0  0  0  0  0  0  0  0  0
   -2.4553   -1.1814   -0.3083 C   0  0  0  0  0  0  0  0  0  0  0  0
   -1.0132   -1.2806   -0.6213 C   0  0  0  0  0  0  0  0  0  0  0  0
  1  2  1  0
  3  2  1  6
  3  4  1  0
  3  5  1  0
  5  6  1  0
  6  7  1  0
  7  8  1  0
  8  9  1  0
  9 10  1  0
 10 11  1  0
 11  6  1  0
M  END
>  <zinc_id>  (356) 
ZINC000001482094

>  <smiles>  (356) 
CN[C@H](C)CC1CCCCC1

$$$$

     RDKit          3D

 10 11  0  0  0  0  0  0  0  0999 V2000
    3.5154    0.7783   -0.4970 N   0  0  0  0  0  0  0  0  0  0  0  0
    2.2227    0.3936    0.4129 C   0  0  2  0  0  0  0  0  0  0  0  0
    2.0775   -1.1702   -0.3762 C   0  0  0  0  0  0  0  0  0  0  0  0
    1.1990    0.2158   -1.0070 C   0  0  1  0  0  0  0  0  0  0  0  0
   -0.1269   -0.1402   -0.0901 C   0  0  0  0  0  0  0  0  0  0  0  0
   -0.7351    1.0268    0.3321 C   0  0  0  0  0  0  0  0  0  0  0  0
   -2.1135    1.0305    0.4915 C   0  0  0  0  0  0  0  0  0  0  0  0
   -2.8658   -0.0756    0.1567 C   0  0  0  0  0  0  0  0  0  0  0  0
   -2.2581   -1.0545   -0.5785 C   0  0  0  0  0  0  0  0  0  0  0  0
   -0.9152   -1.0045   -0.8272 C   0  0  0  0  0  0  0  0  0  0  0  0
  2  1  1  6
  2  3  1  0
  3  4  1  0
  4  5  1  1
  5  6  2  0
  6  7  1  0
  7  8  2  0
  8  9  1  0
  9 10  2  0
  4  2  1  0
 10  5  1  0
M  END
>  <zinc_id>  (357) 
ZINC000001482197

>  <smiles>  (357) 
N[C@@H]1C[C@H]1c1ccccc1

$$$$

     RDKit          3D

 28 30  0  0  0  0  0  0  0  0999 V2000
   -1.5532    0.4303   -2.5945 N   0  0  0  0  0  0  0  0  0  0  0  0
   -0.9705   -0.9461   -2.1082 C   0  0  1  0  0  0  0  0  0  0  0  0
   -0.9835   -0.4804   -0.5353 C   0  0  0  0  0  0  0  0  0  0  0  0
    0.1406    0.5006   -0.4389 C   0  0  0  0  0  0  0  0  0  0  0  0
    0.5529    1.1043   -1.4743 O   0  0  0  0  0  0  0  0  0  0  0  0
    0.7177    0.7142    0.8544 N   0  0  0  0  0  0  0  0  0  0  0  0
    1.6302    1.8536    0.9489 C   0  0  0  0  0  0  0  0  0  0  0  0
    2.9033    1.3716    0.2603 C   0  0  0  0  0  0  0  0  0  0  0  0
    3.3376    0.1875    0.9990 N   0  0  0  0  0  0  0  0  0  0  0  0
    2.5674   -0.3911    1.9522 C   0  0  0  0  0  0  0  0  0  0  0  0
    3.3397   -0.7032    3.0193 N   0  0  0  0  0  0  0  0  0  0  0  0
    4.6002   -0.6246    2.5924 N   0  0  0  0  0  0  0  0  0  0  0  0
    4.5962   -0.2197    1.2981 C   0  0  0  0  0  0  0  0  0  0  0  0
    5.7420   -0.1956    0.3360 C   0  0  0  0  0  0  0  0  0  0  0  0
    6.0422   -1.4376   -0.1556 F   0  0  0  0  0  0  0  0  0  0  0  0
    6.8029    0.3711    0.9946 F   0  0  0  0  0  0  0  0  0  0  0  0
    5.4090    0.6155   -0.7270 F   0  0  0  0  0  0  0  0  0  0  0  0
    1.0950   -0.4277    1.6851 C   0  0  0  0  0  0  0  0  0  0  0  0
   -2.4493   -1.6413   -2.0314 C   0  0  0  0  0  0  0  0  0  0  0  0
   -3.3200   -0.8065   -1.2084 C   0  0  0  0  0  0  0  0  0  0  0  0
   -4.0210    0.2944   -1.6889 C   0  0  0  0  0  0  0  0  0  0  0  0
   -5.0294    0.8819   -0.9325 C   0  0  0  0  0  0  0  0  0  0  0  0
   -5.5178    2.1109   -1.1676 F   0  0  0  0  0  0  0  0  0  0  0  0
   -5.8361   -0.0093   -0.2455 C   0  0  0  0  0  0  0  0  0  0  0  0
   -7.1532    0.1482   -0.0552 F   0  0  0  0  0  0  0  0  0  0  0  0
   -5.2075   -1.1170    0.2936 C   0  0  0  0  0  0  0  0  0  0  0  0
   -3.9491   -1.4704   -0.1570 C   0  0  0  0  0  0  0  0  0  0  0  0
   -3.4864   -2.6775    0.2865 F   0  0  0  0  0  0  0  0  0  0  0  0
  2  1  1  6
  2  3  1  0
  3  4  1  0
  4  5  2  0
  4  6  1  0
  6  7  1  0
  7  8  1  0
  8  9  1  0
  9 10  1  0
 10 11  2  0
 11 12  1  0
 12 13  2  0
 13 14  1  0
 14 15  1  0
 14 16  1  0
 14 17  1  0
 10 18  1  0
  2 19  1  0
 19 20  1  0
 20 21  2  0
 21 22  1  0
 22 23  1  0
 22 24  2  0
 24 25  1  0
 24 26  1  0
 26 27  2  0
 27 28  1  0
 18  6  1  0
 27 20  1  0
 13  9  1  0
M  END
>  <zinc_id>  (358) 
ZINC000001489478

>  <smiles>  (358) 
N[C@@H](CC(=O)N1CCn2c(nnc2C(F)(F)F)C1)Cc1cc(F)c(F)cc1F

$$$$

     RDKit          3D

 23 24  0  0  0  0  0  0  0  0999 V2000
    4.6310   -0.2997    1.7453 C   0  0  0  0  0  0  0  0  0  0  0  0
    4.5211    0.1503    0.3860 C   0  0  0  0  0  0  0  0  0  0  0  0
    4.3810   -0.9564   -0.5261 N   0  0  0  0  0  0  0  0  0  0  0  0
    4.9535   -0.6860   -1.8260 C   0  0  0  0  0  0  0  0  0  0  0  0
    6.4549   -0.5717   -1.7369 C   0  0  0  0  0  0  0  0  0  0  0  0
    6.8545   -0.9620   -0.4565 O   0  0  0  0  0  0  0  0  0  0  0  0
    3.0000   -1.3407   -0.7410 C   0  0  0  0  0  0  0  0  0  0  0  0
    2.2563   -0.0814   -1.1666 C   0  0  0  0  0  0  0  0  0  0  0  0
    1.8609    0.6987    0.0637 C   0  0  0  0  0  0  0  0  0  0  0  0
    0.8422   -0.4185    0.7723 C   0  0  1  0  0  0  0  0  0  0  0  0
    0.4136    0.6624    1.9702 C   0  0  0  0  0  0  0  0  0  0  0  0
   -0.3783    0.0526   -0.1469 N   0  0  0  0  0  0  0  0  0  0  0  0
   -1.4824   -0.8135    0.1380 C   0  0  0  0  0  0  0  0  0  0  0  0
   -1.4441   -2.1722   -0.1491 C   0  0  0  0  0  0  0  0  0  0  0  0
   -2.4792   -2.9359    0.3533 C   0  0  0  0  0  0  0  0  0  0  0  0
   -3.6729   -2.3470    0.4548 N   0  0  0  0  0  0  0  0  0  0  0  0
   -3.8232   -1.0086    0.5461 C   0  0  0  0  0  0  0  0  0  0  0  0
   -5.0645   -0.4217    0.5266 C   0  0  0  0  0  0  0  0  0  0  0  0
   -5.2307    0.8282   -0.0211 C   0  0  0  0  0  0  0  0  0  0  0  0
   -6.8199    1.4894   -0.3300 Cl  0  0  0  0  0  0  0  0  0  0  0  0
   -4.1446    1.6486   -0.2415 C   0  0  0  0  0  0  0  0  0  0  0  0
   -2.9068    1.1430    0.1366 C   0  0  0  0  0  0  0  0  0  0  0  0
   -2.7223   -0.2189    0.2488 C   0  0  0  0  0  0  0  0  0  0  0  0
  1  2  1  0
  2  3  1  0
  3  4  1  0
  4  5  1  0
  5  6  1  0
  3  7  1  0
  7  8  1  0
  8  9  1  0
 10  9  1  6
 10 11  1  0
 10 12  1  0
 12 13  1  0
 13 14  2  0
 14 15  1  0
 15 16  2  0
 16 17  1  0
 17 18  2  0
 18 19  1  0
 19 20  1  0
 19 21  2  0
 21 22  1  0
 22 23  2  0
 23 13  1  0
 23 17  1  0
M  END
>  <zinc_id>  (359) 
ZINC000001530652

>  <smiles>  (359) 
CCN(CCO)CCC[C@@H](C)Nc1ccnc2cc(Cl)ccc12

$$$$

     RDKit          3D

 20 19  0  0  0  0  0  0  0  0999 V2000
    5.1550    1.2545    0.5264 C   0  0  0  0  0  0  0  0  0  0  0  0
    5.4346   -0.1594    0.5908 N   0  0  0  0  0  0  0  0  0  0  0  0
    6.7040   -0.3719    1.2508 C   0  0  0  0  0  0  0  0  0  0  0  0
    5.5720   -0.6430   -0.7821 C   0  0  0  0  0  0  0  0  0  0  0  0
    4.3454   -0.8442    1.2824 C   0  0  0  0  0  0  0  0  0  0  0  0
    3.4059    0.1429    1.9246 C   0  0  0  0  0  0  0  0  0  0  0  0
    2.3904    0.5366    1.0105 O   0  0  0  0  0  0  0  0  0  0  0  0
    1.4296   -0.3217    0.5216 C   0  0  0  0  0  0  0  0  0  0  0  0
    1.2080   -1.3734    1.1748 O   0  0  0  0  0  0  0  0  0  0  0  0
    0.9685   -0.2189   -0.8974 C   0  0  0  0  0  0  0  0  0  0  0  0
   -0.2767    0.6177   -1.0255 C   0  0  0  0  0  0  0  0  0  0  0  0
   -1.4630   -0.2568   -1.0618 C   0  0  0  0  0  0  0  0  0  0  0  0
   -1.3192   -1.5119   -1.1547 O   0  0  0  0  0  0  0  0  0  0  0  0
   -2.7665    0.2167   -1.1217 O   0  0  0  0  0  0  0  0  0  0  0  0
   -3.7114   -0.5374   -1.8360 C   0  0  0  0  0  0  0  0  0  0  0  0
   -5.1353   -0.2069   -1.5077 C   0  0  0  0  0  0  0  0  0  0  0  0
   -5.4081   -0.1680   -0.0928 N   0  0  0  0  0  0  0  0  0  0  0  0
   -5.5111    1.2432    0.2765 C   0  0  0  0  0  0  0  0  0  0  0  0
   -6.6490   -0.8708    0.2229 C   0  0  0  0  0  0  0  0  0  0  0  0
   -4.3732   -0.7870    0.6985 C   0  0  0  0  0  0  0  0  0  0  0  0
  1  2  1  0
  2  3  1  0
  2  4  1  0
  2  5  1  0
  5  6  1  0
  6  7  1  0
  7  8  1  0
  8  9  2  0
  8 10  1  0
 10 11  1  0
 11 12  1  0
 12 13  2  0
 12 14  1  0
 14 15  1  0
 15 16  1  0
 16 17  1  0
 17 18  1  0
 17 19  1  0
 17 20  1  0
M  CHG  2   2   1  17   1
M  END
>  <zinc_id>  (360) 
ZINC000001530820

>  <smiles>  (360) 
C[N+](C)(C)CCOC(=O)CCC(=O)OCC[N+](C)(C)C

$$$$

     RDKit          3D

 28 29  0  0  0  0  0  0  0  0999 V2000
    6.0118   -2.7113    0.1487 C   0  0  0  0  0  0  0  0  0  0  0  0
    5.9239   -2.4757   -0.0194 C   0  0  0  0  0  0  0  0  0  0  0  0
    5.1156   -1.3586   -0.3783 O   0  0  0  0  0  0  0  0  0  0  0  0
    5.5341   -0.0527   -0.2640 C   0  0  0  0  0  0  0  0  0  0  0  0
    6.7597    0.3217   -0.7433 C   0  0  0  0  0  0  0  0  0  0  0  0
    7.1018    1.6475   -0.6735 C   0  0  0  0  0  0  0  0  0  0  0  0
    6.3911    2.5015    0.1522 C   0  0  0  0  0  0  0  0  0  0  0  0
    5.1657    2.0854    0.6586 C   0  0  0  0  0  0  0  0  0  0  0  0
    4.6482    0.8520    0.2921 C   0  0  0  0  0  0  0  0  0  0  0  0
    3.2936    0.5923    0.3333 O   0  0  0  0  0  0  0  0  0  0  0  0
    2.5194    0.7060   -0.8370 C   0  0  0  0  0  0  0  0  0  0  0  0
    1.4576   -0.3572   -0.9573 C   0  0  0  0  0  0  0  0  0  0  0  0
    0.6270   -0.4251    0.2254 N   0  0  0  0  0  0  0  0  0  0  0  0
    0.0158    1.0405    0.3180 C   0  0  2  0  0  0  0  0  0  0  0  0
   -0.9536    0.6077    1.5947 C   0  0  0  0  0  0  0  0  0  0  0  0
   -1.1016    0.7070   -0.8562 C   0  0  0  0  0  0  0  0  0  0  0  0
   -2.2264    0.0209   -0.3019 C   0  0  0  0  0  0  0  0  0  0  0  0
   -2.2708   -1.3611   -0.2013 C   0  0  0  0  0  0  0  0  0  0  0  0
   -3.3540   -2.0198    0.3355 C   0  0  0  0  0  0  0  0  0  0  0  0
   -4.5487   -1.3214    0.4590 C   0  0  0  0  0  0  0  0  0  0  0  0
   -5.7011   -2.0051    0.7764 O   0  0  0  0  0  0  0  0  0  0  0  0
   -6.3830   -1.6867    1.9752 C   0  0  0  0  0  0  0  0  0  0  0  0
   -4.6377   -0.0506   -0.0522 C   0  0  0  0  0  0  0  0  0  0  0  0
   -6.1453    0.8262   -0.1978 S   0  0  0  0  0  0  0  0  0  0  0  0
   -7.4531   -0.1728   -0.6653 N   0  0  0  0  0  0  0  0  0  0  0  0
   -6.4058    1.5410    1.1062 O   0  0  0  0  0  0  0  0  0  0  0  0
   -5.9343    1.8849   -1.2521 O   0  0  0  0  0  0  0  0  0  0  0  0
   -3.4502    0.6637   -0.1615 C   0  0  0  0  0  0  0  0  0  0  0  0
  1  2  1  0
  2  3  1  0
  3  4  1  0
  4  5  2  0
  5  6  1  0
  6  7  2  0
  7  8  1  0
  8  9  2  0
  9 10  1  0
 10 11  1  0
 11 12  1  0
 12 13  1  0
 14 13  1  6
 14 15  1  0
 14 16  1  0
 16 17  1  0
 17 18  2  0
 18 19  1  0
 19 20  2  0
 20 21  1  0
 21 22  1  0
 20 23  1  0
 23 24  1  0
 24 25  1  0
 24 26  2  0
 24 27  2  0
 23 28  2  0
  9  4  1  0
 28 17  1  0
M  END
>  <zinc_id>  (361) 
ZINC000001530694

>  <smiles>  (361) 
CCOc1ccccc1OCCN[C@H](C)Cc1ccc(OC)c(S(N)(=O)=O)c1

$$$$

     RDKit          3D

 19 20  0  0  0  0  0  0  0  0999 V2000
   -3.3121   -2.7523    0.8437 N   0  0  0  0  0  0  0  0  0  0  0  0
   -3.4684   -1.3565    0.7164 C   0  0  0  0  0  0  0  0  0  0  0  0
   -4.5240   -0.7968    1.1040 O   0  0  0  0  0  0  0  0  0  0  0  0
   -2.5018   -0.5938   -0.0959 C   0  0  0  0  0  0  0  0  0  0  0  0
   -0.9035   -1.4907    0.0245 S   0  0  0  0  0  0  0  0  0  0  0  0
   -0.4948   -1.5507   -1.4737 O   0  0  0  0  0  0  0  0  0  0  0  0
    0.1999   -0.1550    0.6305 C   0  0  0  0  0  0  0  0  0  0  0  0
    1.6017   -0.4336    0.2719 C   0  0  0  0  0  0  0  0  0  0  0  0
    1.9751   -1.1750   -0.8383 C   0  0  0  0  0  0  0  0  0  0  0  0
    3.1962   -1.8369   -0.8685 C   0  0  0  0  0  0  0  0  0  0  0  0
    4.1678   -1.5563    0.0758 C   0  0  0  0  0  0  0  0  0  0  0  0
    3.7894   -0.8084    1.1600 C   0  0  0  0  0  0  0  0  0  0  0  0
    2.6345   -0.0544    1.1202 C   0  0  0  0  0  0  0  0  0  0  0  0
   -0.1791    1.1437    0.0422 C   0  0  0  0  0  0  0  0  0  0  0  0
   -0.0469    2.2622    0.8560 C   0  0  0  0  0  0  0  0  0  0  0  0
   -0.4661    3.5110    0.4292 C   0  0  0  0  0  0  0  0  0  0  0  0
   -0.8896    3.6204   -0.8839 C   0  0  0  0  0  0  0  0  0  0  0  0
   -0.6073    2.6245   -1.7922 C   0  0  0  0  0  0  0  0  0  0  0  0
   -0.1709    1.3986   -1.3220 C   0  0  0  0  0  0  0  0  0  0  0  0
  1  2  1  0
  2  3  2  0
  2  4  1  0
  5  4  1  6
  5  6  2  0
  5  7  1  0
  7  8  1  0
  8  9  2  0
  9 10  1  0
 10 11  2  0
 11 12  1  0
 12 13  2  0
  7 14  1  0
 14 15  2  0
 15 16  1  0
 16 17  2  0
 17 18  1  0
 18 19  2  0
 13  8  1  0
 19 14  1  0
M  END
>  <zinc_id>  (362) 
ZINC000000006156

>  <smiles>  (362) 
NC(=O)C[S@@](=O)C(c1ccccc1)c1ccccc1

$$$$

     RDKit          3D

 17 18  0  0  0  0  0  0  0  0999 V2000
    4.3564    1.6391   -0.4536 N   0  0  0  0  0  0  0  0  0  0  0  0
    3.3654    0.9499    0.3118 C   0  0  0  0  0  0  0  0  0  0  0  0
    2.0806    1.4568    0.4556 C   0  0  0  0  0  0  0  0  0  0  0  0
    0.9909    0.6007    0.5555 C   0  0  0  0  0  0  0  0  0  0  0  0
    1.1310   -0.7665    0.3468 C   0  0  0  0  0  0  0  0  0  0  0  0
   -0.0936   -1.6594   -0.5498 S   0  0  0  0  0  0  0  0  0  0  0  0
    0.2638   -1.5137   -1.9928 O   0  0  0  0  0  0  0  0  0  0  0  0
   -0.0386   -3.0906   -0.1437 O   0  0  0  0  0  0  0  0  0  0  0  0
   -1.6633   -0.9333   -0.2258 C   0  0  0  0  0  0  0  0  0  0  0  0
   -2.3088   -0.2743   -1.2563 C   0  0  0  0  0  0  0  0  0  0  0  0
   -3.0475    0.8861   -1.0544 C   0  0  0  0  0  0  0  0  0  0  0  0
   -3.0805    1.4648    0.2087 C   0  0  0  0  0  0  0  0  0  0  0  0
   -2.9664    2.8809    0.4006 N   0  0  0  0  0  0  0  0  0  0  0  0
   -2.8614    0.5680    1.2497 C   0  0  0  0  0  0  0  0  0  0  0  0
   -2.0343   -0.5323    1.0506 C   0  0  0  0  0  0  0  0  0  0  0  0
    2.4119   -1.2725    0.5161 C   0  0  0  0  0  0  0  0  0  0  0  0
    3.4945   -0.4038    0.5810 C   0  0  0  0  0  0  0  0  0  0  0  0
  1  2  1  0
  2  3  2  0
  3  4  1  0
  4  5  2  0
  5  6  1  0
  6  7  2  0
  6  8  2  0
  6  9  1  0
  9 10  2  0
 10 11  1  0
 11 12  2  0
 12 13  1  0
 12 14  1  0
 14 15  2  0
  5 16  1  0
 16 17  2  0
 17  2  1  0
 15  9  1  0
M  END
>  <zinc_id>  (363) 
ZINC000000006310

>  <smiles>  (363) 
Nc1ccc(S(=O)(=O)c2ccc(N)cc2)cc1

$$$$

     RDKit          3D

 15 16  0  0  0  0  0  0  0  0999 V2000
    5.1493   -0.0998    0.7708 N   0  0  0  0  0  0  0  0  0  0  0  0
    3.7984   -0.3266    0.3772 C   0  0  0  0  0  0  0  0  0  0  0  0
    2.7359   -0.6880    1.1378 N   0  0  0  0  0  0  0  0  0  0  0  0
    1.6004   -0.1193    0.7173 C   0  0  0  0  0  0  0  0  0  0  0  0
    0.4346    0.0878    1.4518 C   0  0  0  0  0  0  0  0  0  0  0  0
   -0.6401    0.7299    0.8473 C   0  0  0  0  0  0  0  0  0  0  0  0
   -0.9229    0.3550   -0.4608 C   0  0  0  0  0  0  0  0  0  0  0  0
   -2.1840    0.5445   -0.9854 O   0  0  0  0  0  0  0  0  0  0  0  0
   -3.3477    0.1798   -0.2592 C   0  0  0  0  0  0  0  0  0  0  0  0
   -3.8555   -0.9833   -0.8070 F   0  0  0  0  0  0  0  0  0  0  0  0
   -4.3247    1.1373   -0.3012 F   0  0  0  0  0  0  0  0  0  0  0  0
   -3.0504   -0.1160    1.0640 F   0  0  0  0  0  0  0  0  0  0  0  0
    0.1602   -0.0746   -1.2189 C   0  0  0  0  0  0  0  0  0  0  0  0
    1.4034   -0.3269   -0.6451 C   0  0  0  0  0  0  0  0  0  0  0  0
    3.0431   -0.2998   -1.1669 S   0  0  0  0  0  0  0  0  0  0  0  0
  1  2  1  0
  2  3  2  0
  3  4  1  0
  4  5  2  0
  5  6  1  0
  6  7  2  0
  7  8  1  0
  8  9  1  0
  9 10  1  0
  9 11  1  0
  9 12  1  0
  7 13  1  0
 13 14  2  0
 14 15  1  0
 15  2  1  0
 14  4  1  0
M  END
>  <zinc_id>  (364) 
ZINC000000006481

>  <smiles>  (364) 
Nc1nc2ccc(OC(F)(F)F)cc2s1

$$$$

     RDKit          3D

 33 36  0  0  0  0  0  0  0  0999 V2000
    1.3864    2.6700   -2.8518 C   0  0  0  0  0  0  0  0  0  0  0  0
    2.1669    2.2119   -1.6692 C   0  0  0  0  0  0  0  0  0  0  0  0
    3.2310    1.4773   -1.8044 N   0  0  0  0  0  0  0  0  0  0  0  0
    3.6675    1.0290   -0.5445 N   0  0  0  0  0  0  0  0  0  0  0  0
    4.7665    0.1503   -0.3686 C   0  0  0  0  0  0  0  0  0  0  0  0
    5.1911   -0.6941   -1.3844 C   0  0  0  0  0  0  0  0  0  0  0  0
    5.9666   -1.8043   -1.0913 C   0  0  0  0  0  0  0  0  0  0  0  0
    6.3867   -1.9788    0.2090 C   0  0  0  0  0  0  0  0  0  0  0  0
    6.8122   -3.3179    0.7020 C   0  0  0  0  0  0  0  0  0  0  0  0
    6.4414   -0.8433    1.0060 C   0  0  0  0  0  0  0  0  0  0  0  0
    7.3164   -0.8854    2.2183 C   0  0  0  0  0  0  0  0  0  0  0  0
    5.5202    0.1655    0.7962 C   0  0  0  0  0  0  0  0  0  0  0  0
    2.5444    1.0949    0.3393 C   0  0  0  0  0  0  0  0  0  0  0  0
    2.5871    1.0125    1.5992 O   0  0  0  0  0  0  0  0  0  0  0  0
    1.5998    1.9896   -0.3361 C   0  0  0  0  0  0  0  0  0  0  0  0
    0.4746    2.3542    0.1523 N   0  0  0  0  0  0  0  0  0  0  0  0
   -0.1204    1.5303    1.1271 N   0  0  0  0  0  0  0  0  0  0  0  0
   -0.9244    0.4597    0.6229 C   0  0  0  0  0  0  0  0  0  0  0  0
   -0.3689   -0.8003    0.4549 C   0  0  0  0  0  0  0  0  0  0  0  0
   -1.1431   -1.8257   -0.0694 C   0  0  0  0  0  0  0  0  0  0  0  0
   -2.2524   -1.4717   -0.8068 C   0  0  0  0  0  0  0  0  0  0  0  0
   -2.7523   -0.1783   -0.8459 C   0  0  0  0  0  0  0  0  0  0  0  0
   -4.2143   -0.0613   -0.9350 C   0  0  0  0  0  0  0  0  0  0  0  0
   -4.8810   -0.6936   -1.9780 C   0  0  0  0  0  0  0  0  0  0  0  0
   -6.2480   -0.9294   -1.9077 C   0  0  0  0  0  0  0  0  0  0  0  0
   -6.8010   -1.0375   -0.6414 C   0  0  0  0  0  0  0  0  0  0  0  0
   -6.1805   -0.4115    0.4323 C   0  0  0  0  0  0  0  0  0  0  0  0
   -6.7448   -0.5787    1.7737 C   0  0  0  0  0  0  0  0  0  0  0  0
   -7.9856   -0.5806    1.9946 O   0  0  0  0  0  0  0  0  0  0  0  0
   -5.9058   -1.1278    2.7387 O   0  0  0  0  0  0  0  0  0  0  0  0
   -4.9971    0.2250    0.1768 C   0  0  0  0  0  0  0  0  0  0  0  0
   -2.1031    0.7591   -0.0491 C   0  0  0  0  0  0  0  0  0  0  0  0
   -2.4362    2.0908   -0.3181 O   0  0  0  0  0  0  0  0  0  0  0  0
  1  2  1  0
  2  3  2  0
  3  4  1  0
  4  5  1  0
  5  6  2  0
  6  7  1  0
  7  8  2  0
  8  9  1  0
  8 10  1  0
 10 11  1  0
 10 12  2  0
  4 13  1  0
 13 14  2  0
 13 15  1  0
 15 16  2  0
 16 17  1  0
 17 18  1  0
 18 19  2  0
 19 20  1  0
 20 21  2  0
 21 22  1  0
 22 23  1  0
 23 24  2  0
 24 25  1  0
 25 26  2  0
 26 27  1  0
 27 28  1  0
 28 29  2  0
 28 30  1  0
 27 31  2  0
 22 32  2  0
 32 33  1  0
 15  2  1  0
 32 18  1  0
 12  5  1  0
 31 23  1  0
M  END
>  <zinc_id>  (365) 
ZINC000011679756

>  <smiles>  (365) 
CC1=NN(c2ccc(C)c(C)c2)C(=O)/C1=N\Nc1cccc(-c2cccc(C(=O)O)c2)c1O

$$$$

     RDKit          3D

 19 19  0  0  0  0  0  0  0  0999 V2000
   -0.7957    1.0235   -0.7373 C   0  0  0  0  0  0  0  0  0  0  0  0
   -1.1901   -0.0375    0.4688 C   0  0  1  0  0  0  0  0  0  0  0  0
   -1.8865   -1.0739   -0.6147 C   0  0  0  0  0  0  0  0  0  0  0  0
   -3.3305   -0.9996   -0.2288 C   0  0  0  0  0  0  0  0  0  0  0  0
   -3.6183   -1.5332    1.0229 C   0  0  0  0  0  0  0  0  0  0  0  0
   -4.8393   -1.2752    1.5882 C   0  0  0  0  0  0  0  0  0  0  0  0
   -5.6112   -0.2999    0.9933 C   0  0  0  0  0  0  0  0  0  0  0  0
   -5.1432    0.5378   -0.0034 C   0  0  0  0  0  0  0  0  0  0  0  0
   -3.9261    0.2133   -0.5595 C   0  0  0  0  0  0  0  0  0  0  0  0
    0.1586   -0.8527    0.4066 N   0  0  0  0  0  0  0  0  0  0  0  0
    1.2820   -0.2225   -0.1092 C   0  0  0  0  0  0  0  0  0  0  0  0
    1.2722    1.0378    0.0304 O   0  0  0  0  0  0  0  0  0  0  0  0
    2.6644   -0.9198    0.3668 C   0  0  1  0  0  0  0  0  0  0  0  0
    2.2435   -2.3235   -0.2486 N   0  0  0  0  0  0  0  0  0  0  0  0
    3.4174   -0.4757   -1.0383 C   0  0  0  0  0  0  0  0  0  0  0  0
    4.5948    0.3457   -0.6631 C   0  0  0  0  0  0  0  0  0  0  0  0
    4.5133    1.0958    0.6100 C   0  0  0  0  0  0  0  0  0  0  0  0
    4.4547    2.5882    0.4776 C   0  0  0  0  0  0  0  0  0  0  0  0
    5.7402    3.1712    0.7485 N   0  0  0  0  0  0  0  0  0  0  0  0
  2  1  1  6
  2  3  1  0
  3  4  1  0
  4  5  2  0
  5  6  1  0
  6  7  2  0
  7  8  1  0
  8  9  2  0
  2 10  1  0
 10 11  1  0
 11 12  2  0
 13 11  1  6
 13 14  1  0
 13 15  1  0
 15 16  1  0
 16 17  1  0
 17 18  1  0
 18 19  1  0
  9  4  1  0
M  END
>  <zinc_id>  (366) 
ZINC000011680943

>  <smiles>  (366) 
C[C@@H](Cc1ccccc1)NC(=O)[C@@H](N)CCCCN

$$$$

     RDKit          3D

 41 44  0  0  0  0  0  0  0  0999 V2000
    1.7335    2.6061   -1.6421 C   0  0  0  0  0  0  0  0  0  0  0  0
    1.6508    2.3557   -0.1686 C   0  0  0  0  0  0  0  0  0  0  0  0
    1.3038    3.3638    0.7239 C   0  0  0  0  0  0  0  0  0  0  0  0
    1.9665    3.4629    1.9410 C   0  0  0  0  0  0  0  0  0  0  0  0
    2.9548    2.5571    2.3066 C   0  0  0  0  0  0  0  0  0  0  0  0
    2.9383    1.3569    1.6061 C   0  0  0  0  0  0  0  0  0  0  0  0
    2.2274    1.2358    0.4186 C   0  0  0  0  0  0  0  0  0  0  0  0
    2.4401    0.0762   -0.4440 C   0  0  0  0  0  0  0  0  0  0  0  0
    3.6921   -0.4872   -0.4935 C   0  0  0  0  0  0  0  0  0  0  0  0
    3.8578   -1.8230   -0.8386 C   0  0  0  0  0  0  0  0  0  0  0  0
    5.2183   -2.2609   -0.9373 N   0  0  0  0  0  0  0  0  0  0  0  0
    5.9681   -2.2419    0.3165 C   0  0  0  0  0  0  0  0  0  0  0  0
    7.1604   -1.3265    0.2399 C   0  0  0  0  0  0  0  0  0  0  0  0
    6.9050   -0.1955   -0.6110 N   0  0  0  0  0  0  0  0  0  0  0  0
    8.0136    0.7230   -0.5602 C   0  0  0  0  0  0  0  0  0  0  0  0
    6.6853   -0.5850   -1.9823 C   0  0  0  0  0  0  0  0  0  0  0  0
    5.9413   -1.8829   -2.1243 C   0  0  0  0  0  0  0  0  0  0  0  0
    2.8389   -2.4467   -1.4341 N   0  0  0  0  0  0  0  0  0  0  0  0
    1.5836   -1.9932   -1.2334 C   0  0  0  0  0  0  0  0  0  0  0  0
    1.3734   -0.7565   -0.6712 C   0  0  0  0  0  0  0  0  0  0  0  0
    0.0097   -0.3367   -0.5390 N   0  0  0  0  0  0  0  0  0  0  0  0
   -0.7713   -0.3845   -1.7731 C   0  0  0  0  0  0  0  0  0  0  0  0
   -0.6609   -0.8247    0.6296 C   0  0  0  0  0  0  0  0  0  0  0  0
   -0.2901   -0.3152    1.7254 O   0  0  0  0  0  0  0  0  0  0  0  0
   -1.8590   -1.6836    0.5687 C   0  0  0  0  0  0  0  0  0  0  0  0
   -1.9956   -2.4388    1.8812 C   0  0  0  0  0  0  0  0  0  0  0  0
   -1.8101   -2.6938   -0.5425 C   0  0  0  0  0  0  0  0  0  0  0  0
   -3.0262   -0.8002    0.3349 C   0  0  0  0  0  0  0  0  0  0  0  0
   -2.9472    0.5699    0.5543 C   0  0  0  0  0  0  0  0  0  0  0  0
   -4.0697    1.3398    0.3063 C   0  0  0  0  0  0  0  0  0  0  0  0
   -3.9588    2.7797   -0.0129 C   0  0  0  0  0  0  0  0  0  0  0  0
   -5.2282    3.2816   -0.2561 F   0  0  0  0  0  0  0  0  0  0  0  0
   -3.1962    2.9797   -1.1534 F   0  0  0  0  0  0  0  0  0  0  0  0
   -3.4273    3.5166    1.0205 F   0  0  0  0  0  0  0  0  0  0  0  0
   -5.3004    0.7266    0.4837 C   0  0  0  0  0  0  0  0  0  0  0  0
   -5.4375   -0.6421    0.3429 C   0  0  0  0  0  0  0  0  0  0  0  0
   -6.7511   -1.2447    0.6807 C   0  0  0  0  0  0  0  0  0  0  0  0
   -7.5890   -1.0088   -0.4018 F   0  0  0  0  0  0  0  0  0  0  0  0
   -7.2599   -0.5972    1.7983 F   0  0  0  0  0  0  0  0  0  0  0  0
   -6.6029   -2.5938    0.9130 F   0  0  0  0  0  0  0  0  0  0  0  0
   -4.2818   -1.3682    0.1773 C   0  0  0  0  0  0  0  0  0  0  0  0
  1  2  1  0
  2  3  2  0
  3  4  1  0
  4  5  2  0
  5  6  1  0
  6  7  2  0
  7  8  1  0
  8  9  2  0
  9 10  1  0
 10 11  1  0
 11 12  1  0
 12 13  1  0
 13 14  1  0
 14 15  1  0
 14 16  1  0
 16 17  1  0
 10 18  2  0
 18 19  1  0
 19 20  2  0
 20 21  1  0
 21 22  1  0
 21 23  1  0
 23 24  2  0
 23 25  1  0
 25 26  1  0
 25 27  1  0
 25 28  1  0
 28 29  2  0
 29 30  1  0
 30 31  1  0
 31 32  1  0
 31 33  1  0
 31 34  1  0
 30 35  2  0
 35 36  1  0
 36 37  1  0
 37 38  1  0
 37 39  1  0
 37 40  1  0
 36 41  2  0
  7  2  1  0
 20  8  1  0
 41 28  1  0
 17 11  1  0
M  END
>  <zinc_id>  (367) 
ZINC000011681563

>  <smiles>  (367) 
Cc1ccccc1-c1cc(N2CCN(C)CC2)ncc1N(C)C(=O)C(C)(C)c1cc(C(F)(F)F)cc(C(F)(F)F)c1

$$$$

     RDKit          3D

 23 24  0  0  0  0  0  0  0  0999 V2000
   -8.0036    0.3685    0.3298 C   0  0  0  0  0  0  0  0  0  0  0  0
   -6.8545    0.6379   -0.4450 O   0  0  0  0  0  0  0  0  0  0  0  0
   -5.7162   -0.1748   -0.4242 C   0  0  0  0  0  0  0  0  0  0  0  0
   -5.1488   -0.6050    0.7686 C   0  0  0  0  0  0  0  0  0  0  0  0
   -3.7668   -0.6851    0.8924 C   0  0  0  0  0  0  0  0  0  0  0  0
   -2.9147   -0.2302   -0.1071 C   0  0  0  0  0  0  0  0  0  0  0  0
   -1.6970    0.5251    0.2011 C   0  0  0  0  0  0  0  0  0  0  0  0
   -1.8152    1.7065    0.6428 O   0  0  0  0  0  0  0  0  0  0  0  0
   -0.5022   -0.2259    0.6948 C   0  0  0  0  0  0  0  0  0  0  0  0
    0.6105    0.7413    0.9439 C   0  0  0  0  0  0  0  0  0  0  0  0
    0.3372    1.7533    1.6509 O   0  0  0  0  0  0  0  0  0  0  0  0
    1.9835    0.4753    0.5288 C   0  0  0  0  0  0  0  0  0  0  0  0
    2.4256    0.7372   -0.7527 C   0  0  0  0  0  0  0  0  0  0  0  0
    3.6677    0.2251   -1.1045 C   0  0  0  0  0  0  0  0  0  0  0  0
    4.6080   -0.1449   -0.1513 C   0  0  0  0  0  0  0  0  0  0  0  0
    5.7076   -1.0265   -0.6321 C   0  0  0  0  0  0  0  0  0  0  0  0
    5.2013   -1.9782   -1.7103 C   0  0  0  0  0  0  0  0  0  0  0  0
    6.7986   -0.1621   -1.2495 C   0  0  0  0  0  0  0  0  0  0  0  0
    6.2660   -1.8485    0.5233 C   0  0  0  0  0  0  0  0  0  0  0  0
    4.2228   -0.0674    1.1675 C   0  0  0  0  0  0  0  0  0  0  0  0
    2.9299    0.2911    1.5277 C   0  0  0  0  0  0  0  0  0  0  0  0
   -3.4789   -0.1516   -1.3742 C   0  0  0  0  0  0  0  0  0  0  0  0
   -4.8607   -0.1611   -1.5187 C   0  0  0  0  0  0  0  0  0  0  0  0
  1  2  1  0
  2  3  1  0
  3  4  2  0
  4  5  1  0
  5  6  2  0
  6  7  1  0
  7  8  2  0
  7  9  1  0
  9 10  1  0
 10 11  2  0
 10 12  1  0
 12 13  2  0
 13 14  1  0
 14 15  2  0
 15 16  1  0
 16 17  1  0
 16 18  1  0
 16 19  1  0
 15 20  1  0
 20 21  2  0
  6 22  1  0
 22 23  2  0
 23  3  1  0
 21 12  1  0
M  END
>  <zinc_id>  (368) 
ZINC000000000973

>  <smiles>  (368) 
COc1ccc(C(=O)CC(=O)c2ccc(C(C)(C)C)cc2)cc1

$$$$

     RDKit          3D

 19 20  0  0  0  0  0  0  0  0999 V2000
    4.0884    0.9716   -1.6725 C   0  0  0  0  0  0  0  0  0  0  0  0
    3.2984   -0.3636   -1.0689 C   0  0  1  0  0  0  0  0  0  0  0  0
    4.4023   -0.5821    0.1103 C   0  0  0  0  0  0  0  0  0  0  0  0
    4.7429    0.4418    0.7266 O   0  0  0  0  0  0  0  0  0  0  0  0
    3.9434   -1.6407    0.9055 O   0  0  0  0  0  0  0  0  0  0  0  0
    2.3017    0.4626   -0.0746 C   0  0  0  0  0  0  0  0  0  0  0  0
    2.0295    1.7521   -0.3895 C   0  0  0  0  0  0  0  0  0  0  0  0
    0.9450    2.3470    0.2431 C   0  0  0  0  0  0  0  0  0  0  0  0
   -0.1917    1.5522    0.3362 C   0  0  0  0  0  0  0  0  0  0  0  0
   -0.1123    0.1789    0.1460 C   0  0  0  0  0  0  0  0  0  0  0  0
   -1.2883   -0.6029   -0.2610 C   0  0  0  0  0  0  0  0  0  0  0  0
   -1.1488   -1.2356   -1.3525 O   0  0  0  0  0  0  0  0  0  0  0  0
   -2.6199   -0.3683    0.2744 C   0  0  0  0  0  0  0  0  0  0  0  0
   -3.4205    0.6947   -0.1258 C   0  0  0  0  0  0  0  0  0  0  0  0
   -4.7558    0.5227   -0.4417 C   0  0  0  0  0  0  0  0  0  0  0  0
   -5.3722   -0.7100   -0.2649 C   0  0  0  0  0  0  0  0  0  0  0  0
   -4.6959   -1.5991    0.5615 C   0  0  0  0  0  0  0  0  0  0  0  0
   -3.3193   -1.4846    0.7179 C   0  0  0  0  0  0  0  0  0  0  0  0
    1.1729   -0.3368    0.1147 C   0  0  0  0  0  0  0  0  0  0  0  0
  2  1  1  6
  2  3  1  0
  3  4  2  0
  3  5  1  0
  2  6  1  0
  6  7  2  0
  7  8  1  0
  8  9  2  0
  9 10  1  0
 10 11  1  0
 11 12  2  0
 11 13  1  0
 13 14  2  0
 14 15  1  0
 15 16  2  0
 16 17  1  0
 17 18  2  0
 10 19  2  0
 19  6  1  0
 18 13  1  0
M  END
>  <zinc_id>  (369) 
ZINC000000002272

>  <smiles>  (369) 
C[C@@H](C(=O)O)c1cccc(C(=O)c2ccccc2)c1

$$$$

     RDKit          3D

 19 21  0  0  0  0  0  0  0  0999 V2000
    2.9506    1.8679    0.1255 O   0  0  0  0  0  0  0  0  0  0  0  0
    3.4604    1.0261   -0.0965 C   0  0  0  0  0  0  0  0  0  0  0  0
    4.8559    1.0928   -0.2302 O   0  0  0  0  0  0  0  0  0  0  0  0
    3.1392   -0.3217    0.7770 C   0  0  2  0  0  0  0  0  0  0  0  0
    3.1403   -1.2529   -0.6055 C   0  0  0  0  0  0  0  0  0  0  0  0
    1.9228   -0.6992   -1.2842 C   0  0  0  0  0  0  0  0  0  0  0  0
    1.0514   -0.9253   -0.1267 N   0  0  0  0  0  0  0  0  0  0  0  0
   -0.2786   -1.0297    0.0794 C   0  0  0  0  0  0  0  0  0  0  0  0
   -1.3517   -1.1097   -0.9209 C   0  0  0  0  0  0  0  0  0  0  0  0
   -1.2922   -1.9029   -1.9031 O   0  0  0  0  0  0  0  0  0  0  0  0
   -2.5969   -0.3551   -0.7159 C   0  0  0  0  0  0  0  0  0  0  0  0
   -3.2265   -0.5814    0.5035 C   0  0  0  0  0  0  0  0  0  0  0  0
   -4.0249    0.3854    1.1017 C   0  0  0  0  0  0  0  0  0  0  0  0
   -3.6531    1.7074    0.8839 C   0  0  0  0  0  0  0  0  0  0  0  0
   -3.1882    1.9820   -0.3973 C   0  0  0  0  0  0  0  0  0  0  0  0
   -2.7095    0.9465   -1.1921 C   0  0  0  0  0  0  0  0  0  0  0  0
   -0.4602   -0.6622    1.4064 C   0  0  0  0  0  0  0  0  0  0  0  0
    0.7328   -0.1217    1.8679 C   0  0  0  0  0  0  0  0  0  0  0  0
    1.5284   -0.0464    0.7269 C   0  0  0  0  0  0  0  0  0  0  0  0
  1  2  2  0
  2  3  1  0
  4  2  1  6
  4  5  1  0
  5  6  1  0
  6  7  1  0
  7  8  1  0
  8  9  1  0
  9 10  2  0
  9 11  1  0
 11 12  2  0
 12 13  1  0
 13 14  2  0
 14 15  1  0
 15 16  2  0
  8 17  2  0
 17 18  1  0
 18 19  2  0
 19  4  1  0
 19  7  1  0
 16 11  1  0
M  END
>  <zinc_id>  (370) 
ZINC000000002279

>  <smiles>  (370) 
O=C(c1ccccc1)c1ccc2n1CC[C@H]2C(=O)O

$$$$

     RDKit          3D

 41 44  0  0  0  0  0  0  0  0999 V2000
    0.1080   -1.4320   -3.2390 C   0  0  0  0  0  0  0  0  0  0  0  0
    0.2507   -1.6912   -2.5335 C   0  0  0  0  0  0  0  0  0  0  0  0
    1.0095   -2.9460   -2.1466 C   0  0  0  0  0  0  0  0  0  0  0  0
   -0.2252   -1.0063   -1.2921 C   0  0  0  0  0  0  0  0  0  0  0  0
   -1.4353   -0.3399   -1.2002 C   0  0  0  0  0  0  0  0  0  0  0  0
   -2.6029   -0.4118   -2.0633 C   0  0  0  0  0  0  0  0  0  0  0  0
   -2.6406    0.0231   -3.2374 O   0  0  0  0  0  0  0  0  0  0  0  0
   -3.8097   -0.8806   -1.5011 N   0  0  0  0  0  0  0  0  0  0  0  0
   -5.1037   -0.5175   -1.9597 C   0  0  0  0  0  0  0  0  0  0  0  0
   -5.3391    0.6090   -2.7357 C   0  0  0  0  0  0  0  0  0  0  0  0
   -6.6391    1.0523   -2.9398 C   0  0  0  0  0  0  0  0  0  0  0  0
   -7.7085    0.5066   -2.2406 C   0  0  0  0  0  0  0  0  0  0  0  0
   -7.4426   -0.4584   -1.3070 C   0  0  0  0  0  0  0  0  0  0  0  0
   -6.1635   -0.9191   -1.1564 C   0  0  0  0  0  0  0  0  0  0  0  0
   -1.3836    0.2851    0.0401 C   0  0  0  0  0  0  0  0  0  0  0  0
   -2.4511    1.0701    0.6456 C   0  0  0  0  0  0  0  0  0  0  0  0
   -2.6568    2.3995    0.3486 C   0  0  0  0  0  0  0  0  0  0  0  0
   -3.9395    2.9075    0.4102 C   0  0  0  0  0  0  0  0  0  0  0  0
   -4.9454    2.2595    1.1108 C   0  0  0  0  0  0  0  0  0  0  0  0
   -4.6094    1.0365    1.6772 C   0  0  0  0  0  0  0  0  0  0  0  0
   -3.3818    0.4414    1.4434 C   0  0  0  0  0  0  0  0  0  0  0  0
   -0.0802    0.2648    0.4955 C   0  0  0  0  0  0  0  0  0  0  0  0
    0.3496    0.3519    1.8962 C   0  0  0  0  0  0  0  0  0  0  0  0
    1.6008    0.8557    2.2234 C   0  0  0  0  0  0  0  0  0  0  0  0
    2.3043    0.3851    3.3252 C   0  0  0  0  0  0  0  0  0  0  0  0
    1.8224   -0.7162    4.0216 C   0  0  0  0  0  0  0  0  0  0  0  0
    2.6467   -1.6217    4.6076 F   0  0  0  0  0  0  0  0  0  0  0  0
    0.4589   -0.9548    3.9021 C   0  0  0  0  0  0  0  0  0  0  0  0
   -0.2904   -0.3714    2.8880 C   0  0  0  0  0  0  0  0  0  0  0  0
    0.6205   -0.3537   -0.4846 N   0  0  0  0  0  0  0  0  0  0  0  0
    2.0614   -0.5106   -0.4069 C   0  0  0  0  0  0  0  0  0  0  0  0
    2.7654    0.1909   -1.5537 C   0  0  0  0  0  0  0  0  0  0  0  0
    4.0868    0.8974   -0.8685 C   0  0  2  0  0  0  0  0  0  0  0  0
    4.9193    0.6668   -2.1153 O   0  0  0  0  0  0  0  0  0  0  0  0
    4.5756   -0.5319   -0.2109 C   0  0  0  0  0  0  0  0  0  0  0  0
    6.1994   -0.2569   -0.1691 C   0  0  1  0  0  0  0  0  0  0  0  0
    6.0232    0.9422    0.7434 O   0  0  0  0  0  0  0  0  0  0  0  0
    6.3917   -1.2738    1.1131 C   0  0  0  0  0  0  0  0  0  0  0  0
    7.8103   -0.9686    1.4712 C   0  0  0  0  0  0  0  0  0  0  0  0
    8.0637   -0.3372    2.5336 O   0  0  0  0  0  0  0  0  0  0  0  0
    8.7799   -0.9993    0.4647 O   0  0  0  0  0  0  0  0  0  0  0  0
  1  2  1  0
  2  3  1  0
  2  4  1  0
  4  5  2  0
  5  6  1  0
  6  7  2  0
  6  8  1  0
  8  9  1  0
  9 10  2  0
 10 11  1  0
 11 12  2  0
 12 13  1  0
 13 14  2  0
  5 15  1  0
 15 16  1  0
 16 17  2  0
 17 18  1  0
 18 19  2  0
 19 20  1  0
 20 21  2  0
 15 22  2  0
 22 23  1  0
 23 24  2  0
 24 25  1  0
 25 26  2  0
 26 27  1  0
 26 28  1  0
 28 29  2  0
 22 30  1  0
 30 31  1  0
 31 32  1  0
 33 32  1  6
 33 34  1  0
 33 35  1  0
 36 35  1  1
 36 37  1  0
 36 38  1  0
 38 39  1  0
 39 40  2  0
 39 41  1  0
 30  4  1  0
 14  9  1  0
 21 16  1  0
 29 23  1  0
M  END
>  <zinc_id>  (371) 
ZINC000011615926

>  <smiles>  (371) 
CC(C)c1c(C(=O)Nc2ccccc2)c(-c2ccccc2)c(-c2ccc(F)cc2)n1CC[C@H](O)C[C@@H](O)CC(=O)O

$$$$

     RDKit          3D

 34 37  0  0  0  0  0  0  0  0999 V2000
    4.7423    2.2676    1.8335 C   0  0  0  0  0  0  0  0  0  0  0  0
    4.9902    2.5950    1.0465 O   0  0  0  0  0  0  0  0  0  0  0  0
    4.8205    2.0748   -0.2401 C   0  0  0  0  0  0  0  0  0  0  0  0
    4.0516    2.7107   -1.2053 C   0  0  0  0  0  0  0  0  0  0  0  0
    3.1698    1.9613   -1.9753 C   0  0  0  0  0  0  0  0  0  0  0  0
    3.1930    0.5718   -1.9779 C   0  0  0  0  0  0  0  0  0  0  0  0
    1.9432   -0.2361   -2.1588 C   0  0  0  0  0  0  0  0  0  0  0  0
    0.9249    0.3355   -1.3240 N   0  0  0  0  0  0  0  0  0  0  0  0
    0.2592   -0.3746   -0.2721 C   0  0  0  0  0  0  0  0  0  0  0  0
    0.4858   -1.7042   -0.1080 N   0  0  0  0  0  0  0  0  0  0  0  0
   -0.3406   -2.5369    0.5241 C   0  0  0  0  0  0  0  0  0  0  0  0
   -0.3591   -3.9136    0.1105 N   0  0  0  0  0  0  0  0  0  0  0  0
   -0.5210   -4.2430   -1.2714 C   0  0  0  0  0  0  0  0  0  0  0  0
   -1.7908   -5.0440   -1.3849 C   0  0  0  0  0  0  0  0  0  0  0  0
   -1.3976   -6.0168   -0.2758 C   0  0  0  0  0  0  0  0  0  0  0  0
   -1.4106   -4.8252    0.8936 C   0  0  1  0  0  0  0  0  0  0  0  0
   -0.1922   -5.5998    1.7327 C   0  0  0  0  0  0  0  0  0  0  0  0
    0.3934   -4.5847    2.4707 O   0  0  0  0  0  0  0  0  0  0  0  0
   -1.3655   -1.9468    1.1712 N   0  0  0  0  0  0  0  0  0  0  0  0
   -1.7322   -0.6647    0.9249 C   0  0  0  0  0  0  0  0  0  0  0  0
   -1.0258    0.0840   -0.0036 C   0  0  0  0  0  0  0  0  0  0  0  0
   -1.7080    1.0342   -0.8929 C   0  0  0  0  0  0  0  0  0  0  0  0
   -1.0251    1.5911   -1.9554 O   0  0  0  0  0  0  0  0  0  0  0  0
   -2.9797    1.1768   -0.8785 N   0  0  0  0  0  0  0  0  0  0  0  0
   -3.5165    2.5054   -1.1633 C   0  0  0  0  0  0  0  0  0  0  0  0
   -3.7425    3.2089    0.1166 C   0  0  0  0  0  0  0  0  0  0  0  0
   -4.5468    4.3001    0.1265 N   0  0  0  0  0  0  0  0  0  0  0  0
   -5.1087    4.6891    1.2970 C   0  0  0  0  0  0  0  0  0  0  0  0
   -4.8786    3.9843    2.4557 C   0  0  0  0  0  0  0  0  0  0  0  0
   -3.8623    3.0431    2.4613 C   0  0  0  0  0  0  0  0  0  0  0  0
   -3.2166    2.8185    1.2909 N   0  0  0  0  0  0  0  0  0  0  0  0
    4.2927    0.0080   -1.3416 C   0  0  0  0  0  0  0  0  0  0  0  0
    5.0495    0.7303   -0.4323 C   0  0  0  0  0  0  0  0  0  0  0  0
    6.4039    0.0001    0.4056 Cl  0  0  0  0  0  0  0  0  0  0  0  0
  1  2  1  0
  2  3  1  0
  3  4  2  0
  4  5  1  0
  5  6  2  0
  6  7  1  0
  7  8  1  0
  8  9  1  0
  9 10  2  0
 10 11  1  0
 11 12  1  0
 12 13  1  0
 13 14  1  0
 14 15  1  0
 15 16  1  0
 16 17  1  1
 17 18  1  0
 11 19  2  0
 19 20  1  0
 20 21  2  0
 21 22  1  0
 22 23  1  0
 22 24  2  0
 24 25  1  0
 25 26  1  0
 26 27  2  0
 27 28  1  0
 28 29  2  0
 29 30  1  0
 30 31  2  0
  6 32  1  0
 32 33  2  0
 33 34  1  0
 33  3  1  0
 21  9  1  0
 31 26  1  0
 16 12  1  0
M  END
>  <zinc_id>  (372) 
ZINC000011677857

>  <smiles>  (372) 
COc1ccc(CNc2nc(N3CCC[C@H]3CO)ncc2/C(O)=N/Cc2ncccn2)cc1Cl

$$$$

     RDKit          3D

 41 44  0  0  0  0  0  0  0  0999 V2000
    0.1138    2.5582   -0.5775 C   0  0  0  0  0  0  0  0  0  0  0  0
    0.2511    1.8450   -0.7662 C   0  0  0  0  0  0  0  0  0  0  0  0
    0.0564    1.5679   -2.2519 C   0  0  0  0  0  0  0  0  0  0  0  0
   -0.2360    0.6495   -0.0112 C   0  0  0  0  0  0  0  0  0  0  0  0
   -1.5452    0.3604    0.3614 C   0  0  0  0  0  0  0  0  0  0  0  0
   -2.7135    1.1937    0.0837 C   0  0  0  0  0  0  0  0  0  0  0  0
   -3.3890    0.9978   -0.9705 O   0  0  0  0  0  0  0  0  0  0  0  0
   -3.0099    2.3862    0.7916 N   0  0  0  0  0  0  0  0  0  0  0  0
   -3.7450    3.4316    0.1434 C   0  0  0  0  0  0  0  0  0  0  0  0
   -5.0759    3.6793    0.4243 C   0  0  0  0  0  0  0  0  0  0  0  0
   -5.5086    4.9864    0.2930 C   0  0  0  0  0  0  0  0  0  0  0  0
   -4.6849    5.9792   -0.1983 C   0  0  0  0  0  0  0  0  0  0  0  0
   -3.5394    5.5662   -0.8550 C   0  0  0  0  0  0  0  0  0  0  0  0
   -3.1801    4.2230   -0.8467 C   0  0  0  0  0  0  0  0  0  0  0  0
   -1.5915   -1.0290    0.4080 C   0  0  0  0  0  0  0  0  0  0  0  0
   -2.7571   -1.8780    0.1174 C   0  0  0  0  0  0  0  0  0  0  0  0
   -3.4755   -2.4937    1.1363 C   0  0  0  0  0  0  0  0  0  0  0  0
   -4.5877   -3.2667    0.8255 C   0  0  0  0  0  0  0  0  0  0  0  0
   -4.9662   -3.5310   -0.4685 C   0  0  0  0  0  0  0  0  0  0  0  0
   -4.3734   -2.7425   -1.4459 C   0  0  0  0  0  0  0  0  0  0  0  0
   -3.2241   -2.0547   -1.1802 C   0  0  0  0  0  0  0  0  0  0  0  0
   -0.2717   -1.4433    0.5541 C   0  0  0  0  0  0  0  0  0  0  0  0
    0.1437   -2.8428    0.4301 C   0  0  0  0  0  0  0  0  0  0  0  0
   -0.5570   -3.7342   -0.3617 C   0  0  0  0  0  0  0  0  0  0  0  0
   -0.5662   -5.0904   -0.1574 C   0  0  0  0  0  0  0  0  0  0  0  0
    0.5534   -5.6002    0.4873 C   0  0  0  0  0  0  0  0  0  0  0  0
    0.7385   -6.9445    0.4256 F   0  0  0  0  0  0  0  0  0  0  0  0
    1.4430   -4.7458    1.1166 C   0  0  0  0  0  0  0  0  0  0  0  0
    1.2295   -3.3713    1.1082 C   0  0  0  0  0  0  0  0  0  0  0  0
    0.5627   -0.4063    0.2874 N   0  0  0  0  0  0  0  0  0  0  0  0
    1.8326   -0.2697    0.9457 C   0  0  0  0  0  0  0  0  0  0  0  0
    3.0276   -0.4680    0.0645 C   0  0  0  0  0  0  0  0  0  0  0  0
    3.4351    1.0751   -0.4281 C   0  0  1  0  0  0  0  0  0  0  0  0
    3.4683    1.5787    1.0234 O   0  0  0  0  0  0  0  0  0  0  0  0
    5.0765    0.7563   -0.3986 C   0  0  0  0  0  0  0  0  0  0  0  0
    5.3982    2.2883   -1.0013 C   0  0  2  0  0  0  0  0  0  0  0  0
    5.8890    1.7024   -2.3361 O   0  0  0  0  0  0  0  0  0  0  0  0
    6.9603    2.3943   -0.4293 C   0  0  0  0  0  0  0  0  0  0  0  0
    7.2879    1.2186    0.3162 C   0  0  0  0  0  0  0  0  0  0  0  0
    7.7042    1.3433    1.5081 O   0  0  0  0  0  0  0  0  0  0  0  0
    7.8257    0.1304   -0.3803 O   0  0  0  0  0  0  0  0  0  0  0  0
  1  2  1  0
  2  3  1  0
  2  4  1  0
  4  5  2  0
  5  6  1  0
  6  7  2  0
  6  8  1  0
  8  9  1  0
  9 10  2  0
 10 11  1  0
 11 12  2  0
 12 13  1  0
 13 14  2  0
  5 15  1  0
 15 16  1  0
 16 17  2  0
 17 18  1  0
 18 19  2  0
 19 20  1  0
 20 21  2  0
 15 22  2  0
 22 23  1  0
 23 24  2  0
 24 25  1  0
 25 26  2  0
 26 27  1  0
 26 28  1  0
 28 29  2  0
 22 30  1  0
 30 31  1  0
 31 32  1  0
 33 32  1  1
 33 34  1  0
 33 35  1  0
 36 35  1  1
 36 37  1  0
 36 38  1  0
 38 39  1  0
 39 40  2  0
 39 41  1  0
 30  4  1  0
 14  9  1  0
 21 16  1  0
 29 23  1  0
M  END
>  <zinc_id>  (373) 
ZINC000011615927

>  <smiles>  (373) 
CC(C)c1c(C(=O)Nc2ccccc2)c(-c2ccccc2)c(-c2ccc(F)cc2)n1CC[C@@H](O)C[C@H](O)CC(=O)O

$$$$

     RDKit          3D

 41 44  0  0  0  0  0  0  0  0999 V2000
   -1.4462    2.2588   -2.3907 C   0  0  0  0  0  0  0  0  0  0  0  0
   -0.6281    2.4517   -1.1344 C   0  0  0  0  0  0  0  0  0  0  0  0
    0.5436    3.3359   -1.4092 C   0  0  0  0  0  0  0  0  0  0  0  0
   -0.2408    1.1311   -0.5428 C   0  0  0  0  0  0  0  0  0  0  0  0
   -0.9933    0.4031    0.3713 C   0  0  0  0  0  0  0  0  0  0  0  0
   -2.0345    0.9660    1.2301 C   0  0  0  0  0  0  0  0  0  0  0  0
   -1.9691    0.8755    2.4873 O   0  0  0  0  0  0  0  0  0  0  0  0
   -3.2312    1.5518    0.7127 N   0  0  0  0  0  0  0  0  0  0  0  0
   -3.7989    2.6960    1.3314 C   0  0  0  0  0  0  0  0  0  0  0  0
   -3.6291    3.9497    0.7591 C   0  0  0  0  0  0  0  0  0  0  0  0
   -3.6884    5.0392    1.6118 C   0  0  0  0  0  0  0  0  0  0  0  0
   -4.6270    4.9418    2.6315 C   0  0  0  0  0  0  0  0  0  0  0  0
   -5.2908    3.7420    2.8567 C   0  0  0  0  0  0  0  0  0  0  0  0
   -4.8472    2.5811    2.2353 C   0  0  0  0  0  0  0  0  0  0  0  0
   -0.6565   -0.9337    0.1906 C   0  0  0  0  0  0  0  0  0  0  0  0
   -1.4306   -2.0326    0.7842 C   0  0  0  0  0  0  0  0  0  0  0  0
   -0.9594   -2.8317    1.7882 C   0  0  0  0  0  0  0  0  0  0  0  0
   -1.7245   -3.8628    2.3125 C   0  0  0  0  0  0  0  0  0  0  0  0
   -3.0176   -4.0832    1.8545 C   0  0  0  0  0  0  0  0  0  0  0  0
   -3.5648   -3.1128    1.0380 C   0  0  0  0  0  0  0  0  0  0  0  0
   -2.7744   -2.1193    0.4919 C   0  0  0  0  0  0  0  0  0  0  0  0
    0.2047   -1.0225   -0.8984 C   0  0  0  0  0  0  0  0  0  0  0  0
    0.2218   -2.1004   -1.9002 C   0  0  0  0  0  0  0  0  0  0  0  0
   -0.1877   -1.9011   -3.2151 C   0  0  0  0  0  0  0  0  0  0  0  0
   -1.1700   -2.7031   -3.7880 C   0  0  0  0  0  0  0  0  0  0  0  0
   -1.1856   -4.0161   -3.3286 C   0  0  0  0  0  0  0  0  0  0  0  0
   -2.3451   -4.6983   -3.5597 F   0  0  0  0  0  0  0  0  0  0  0  0
   -0.3075   -4.4062   -2.3213 C   0  0  0  0  0  0  0  0  0  0  0  0
    0.3111   -3.4386   -1.5353 C   0  0  0  0  0  0  0  0  0  0  0  0
    0.6223    0.2471   -1.0903 N   0  0  0  0  0  0  0  0  0  0  0  0
    1.7326    0.5643   -1.9823 C   0  0  0  0  0  0  0  0  0  0  0  0
    2.9982    0.7024   -1.1394 C   0  0  0  0  0  0  0  0  0  0  0  0
    3.3952   -0.9052   -0.8332 C   0  0  2  0  0  0  0  0  0  0  0  0
    3.2839   -0.7126    0.7000 O   0  0  0  0  0  0  0  0  0  0  0  0
    5.0480   -0.5862   -0.8311 C   0  0  0  0  0  0  0  0  0  0  0  0
    5.0478    0.7798    0.1454 C   0  0  2  0  0  0  0  0  0  0  0  0
    5.7223    1.6246   -0.9637 O   0  0  0  0  0  0  0  0  0  0  0  0
    6.5444    0.3764    0.7993 C   0  0  0  0  0  0  0  0  0  0  0  0
    6.6267    1.3996    1.8765 C   0  0  0  0  0  0  0  0  0  0  0  0
    7.0330    1.0919    3.0323 O   0  0  0  0  0  0  0  0  0  0  0  0
    6.4127    2.7565    1.6228 O   0  0  0  0  0  0  0  0  0  0  0  0
  1  2  1  0
  2  3  1  0
  2  4  1  0
  4  5  2  0
  5  6  1  0
  6  7  2  0
  6  8  1  0
  8  9  1  0
  9 10  2  0
 10 11  1  0
 11 12  2  0
 12 13  1  0
 13 14  2  0
  5 15  1  0
 15 16  1  0
 16 17  2  0
 17 18  1  0
 18 19  2  0
 19 20  1  0
 20 21  2  0
 15 22  2  0
 22 23  1  0
 23 24  2  0
 24 25  1  0
 25 26  2  0
 26 27  1  0
 26 28  1  0
 28 29  2  0
 22 30  1  0
 30 31  1  0
 31 32  1  0
 33 32  1  6
 33 34  1  0
 33 35  1  0
 36 35  1  6
 36 37  1  0
 36 38  1  0
 38 39  1  0
 39 40  2  0
 39 41  1  0
 30  4  1  0
 14  9  1  0
 21 16  1  0
 29 23  1  0
M  END
>  <zinc_id>  (374) 
ZINC000011615928

>  <smiles>  (374) 
CC(C)c1c(C(=O)Nc2ccccc2)c(-c2ccccc2)c(-c2ccc(F)cc2)n1CC[C@H](O)C[C@H](O)CC(=O)O

$$$$

     RDKit          3D

 31 34  0  0  0  0  0  0  0  0999 V2000
   -7.0785    1.5596   -2.1680 C   0  0  0  0  0  0  0  0  0  0  0  0
   -6.7559    0.9139   -0.8580 C   0  0  0  0  0  0  0  0  0  0  0  0
   -5.8348   -0.1098   -0.6932 C   0  0  0  0  0  0  0  0  0  0  0  0
   -4.9262   -0.7654   -1.4902 C   0  0  0  0  0  0  0  0  0  0  0  0
   -3.6938   -1.2000   -1.0160 C   0  0  0  0  0  0  0  0  0  0  0  0
   -3.3089   -0.8839    0.2821 C   0  0  0  0  0  0  0  0  0  0  0  0
   -1.9565   -0.5380    0.6061 N   0  0  0  0  0  0  0  0  0  0  0  0
   -1.6348    0.7391    1.2400 C   0  0  0  0  0  0  0  0  0  0  0  0
   -0.9000   -1.3244    0.0404 C   0  0  0  0  0  0  0  0  0  0  0  0
   -1.0198   -2.7087    0.0485 C   0  0  0  0  0  0  0  0  0  0  0  0
    0.1169   -3.4560   -0.2357 C   0  0  0  0  0  0  0  0  0  0  0  0
    1.2449   -2.8374   -0.6594 N   0  0  0  0  0  0  0  0  0  0  0  0
    1.4235   -1.5233   -0.3811 C   0  0  0  0  0  0  0  0  0  0  0  0
    2.4555   -0.7796   -1.0398 N   0  0  0  0  0  0  0  0  0  0  0  0
    3.7347   -0.5644   -0.4765 C   0  0  0  0  0  0  0  0  0  0  0  0
    4.6468   -1.5944   -0.4609 C   0  0  0  0  0  0  0  0  0  0  0  0
    5.9271   -1.3865   -0.0013 C   0  0  0  0  0  0  0  0  0  0  0  0
    6.3964   -0.0957    0.1820 C   0  0  0  0  0  0  0  0  0  0  0  0
    7.8444    0.1851    0.3785 C   0  0  0  0  0  0  0  0  0  0  0  0
    5.4836    0.9296    0.3041 C   0  0  0  0  0  0  0  0  0  0  0  0
    6.0543    2.5391    0.6390 S   0  0  0  0  0  0  0  0  0  0  0  0
    5.9403    3.5252   -0.7797 N   0  0  0  0  0  0  0  0  0  0  0  0
    7.4620    2.4719    1.1503 O   0  0  0  0  0  0  0  0  0  0  0  0
    5.2402    3.2202    1.7099 O   0  0  0  0  0  0  0  0  0  0  0  0
    4.2145    0.7071   -0.1993 C   0  0  0  0  0  0  0  0  0  0  0  0
    0.3734   -0.8636    0.1107 N   0  0  0  0  0  0  0  0  0  0  0  0
   -4.3641   -0.6115    1.1452 C   0  0  0  0  0  0  0  0  0  0  0  0
   -5.5989   -0.1752    0.6751 C   0  0  0  0  0  0  0  0  0  0  0  0
   -6.6237    0.5240    1.2176 N   0  0  0  0  0  0  0  0  0  0  0  0
   -7.0581    1.4401    0.3541 N   0  0  0  0  0  0  0  0  0  0  0  0
   -7.8047    2.6630    0.6420 C   0  0  0  0  0  0  0  0  0  0  0  0
  1  2  1  0
  2  3  2  0
  3  4  1  0
  4  5  2  0
  5  6  1  0
  6  7  1  0
  7  8  1  0
  7  9  1  0
  9 10  2  0
 10 11  1  0
 11 12  2  0
 12 13  1  0
 13 14  1  0
 14 15  1  0
 15 16  2  0
 16 17  1  0
 17 18  2  0
 18 19  1  0
 18 20  1  0
 20 21  1  0
 21 22  1  0
 21 23  2  0
 21 24  2  0
 20 25  2  0
 13 26  2  0
  6 27  2  0
 27 28  1  0
 28 29  2  0
 29 30  1  0
 30 31  1  0
 30  2  1  0
 28  3  1  0
 26  9  1  0
 25 15  1  0
M  END
>  <zinc_id>  (375) 
ZINC000011617039

>  <smiles>  (375) 
Cc1ccc(Nc2nccc(N(C)c3ccc4c(C)n(C)nc4c3)n2)cc1S(N)(=O)=O

$$$$

     RDKit          3D

 34 38  0  0  0  0  0  0  0  0999 V2000
   -5.5974    5.1933    1.9088 C   0  0  0  0  0  0  0  0  0  0  0  0
   -5.4046    4.8541    0.5464 O   0  0  0  0  0  0  0  0  0  0  0  0
   -4.6794    3.7264    0.1643 C   0  0  0  0  0  0  0  0  0  0  0  0
   -5.2753    2.7545   -0.6305 C   0  0  0  0  0  0  0  0  0  0  0  0
   -4.5612    1.5943   -0.9029 C   0  0  0  0  0  0  0  0  0  0  0  0
   -3.4329    1.2378   -0.1745 C   0  0  0  0  0  0  0  0  0  0  0  0
   -3.1790   -0.1633   -0.0335 N   0  0  0  0  0  0  0  0  0  0  0  0
   -4.0415   -1.1391    0.2347 N   0  0  0  0  0  0  0  0  0  0  0  0
   -3.4894   -2.3153   -0.0861 C   0  0  0  0  0  0  0  0  0  0  0  0
   -4.1232   -3.5468   -0.5548 C   0  0  0  0  0  0  0  0  0  0  0  0
   -3.4487   -4.7718   -0.3564 N   0  0  0  0  0  0  0  0  0  0  0  0
   -5.2563   -3.5820   -1.0791 O   0  0  0  0  0  0  0  0  0  0  0  0
   -2.1223   -2.1044    0.0238 C   0  0  0  0  0  0  0  0  0  0  0  0
   -1.9573   -0.7287    0.0848 C   0  0  0  0  0  0  0  0  0  0  0  0
   -0.5929   -0.2480   -0.1662 C   0  0  0  0  0  0  0  0  0  0  0  0
   -0.3726    0.9920   -0.2623 O   0  0  0  0  0  0  0  0  0  0  0  0
    0.3570   -1.0858   -0.8359 N   0  0  0  0  0  0  0  0  0  0  0  0
    1.7203   -0.9029   -0.4524 C   0  0  0  0  0  0  0  0  0  0  0  0
    2.6155   -1.9529   -0.6160 C   0  0  0  0  0  0  0  0  0  0  0  0
    3.9658   -1.7312   -0.5241 C   0  0  0  0  0  0  0  0  0  0  0  0
    4.4348   -0.5558    0.0012 C   0  0  0  0  0  0  0  0  0  0  0  0
    5.8423   -0.2868    0.0301 N   0  0  0  0  0  0  0  0  0  0  0  0
    6.3583    0.6539   -0.9619 C   0  0  0  0  0  0  0  0  0  0  0  0
    6.4208    1.9959   -0.2938 C   0  0  0  0  0  0  0  0  0  0  0  0
    7.2117    2.0081    0.9786 C   0  0  0  0  0  0  0  0  0  0  0  0
    7.6879    0.6525    1.4147 C   0  0  0  0  0  0  0  0  0  0  0  0
    6.5913   -0.3520    1.2500 C   0  0  0  0  0  0  0  0  0  0  0  0
    6.1590   -1.0586    2.1823 O   0  0  0  0  0  0  0  0  0  0  0  0
    3.5144    0.4365    0.3137 C   0  0  0  0  0  0  0  0  0  0  0  0
    2.1555    0.1606    0.2889 C   0  0  0  0  0  0  0  0  0  0  0  0
   -0.0869   -2.3798   -1.3379 C   0  0  0  0  0  0  0  0  0  0  0  0
   -0.9650   -2.9812   -0.2564 C   0  0  0  0  0  0  0  0  0  0  0  0
   -3.0473    2.1469    0.8027 C   0  0  0  0  0  0  0  0  0  0  0  0
   -3.4016    3.4796    0.6406 C   0  0  0  0  0  0  0  0  0  0  0  0
  1  2  1  0
  2  3  1  0
  3  4  2  0
  4  5  1  0
  5  6  2  0
  6  7  1  0
  7  8  1  0
  8  9  2  0
  9 10  1  0
 10 11  1  0
 10 12  2  0
  9 13  1  0
 13 14  2  0
 14 15  1  0
 15 16  2  0
 15 17  1  0
 17 18  1  0
 18 19  2  0
 19 20  1  0
 20 21  2  0
 21 22  1  0
 22 23  1  0
 23 24  1  0
 24 25  1  0
 25 26  1  0
 26 27  1  0
 27 28  2  0
 21 29  1  0
 29 30  2  0
 17 31  1  0
 31 32  1  0
  6 33  1  0
 33 34  2  0
 34  3  1  0
 14  7  1  0
 30 18  1  0
 32 13  1  0
 27 22  1  0
M  END
>  <zinc_id>  (376) 
ZINC000011677837

>  <smiles>  (376) 
COc1ccc(-n2nc(C(N)=O)c3c2C(=O)N(c2ccc(N4CCCCC4=O)cc2)CC3)cc1

$$$$

     RDKit          3D

 32 34  0  0  0  0  0  0  0  0999 V2000
   -8.0699    2.0714    0.2562 C   0  0  0  0  0  0  0  0  0  0  0  0
   -7.2367    0.8800    0.1208 N   0  0  0  0  0  0  0  0  0  0  0  0
   -6.1627    0.9246   -0.8003 C   0  0  0  0  0  0  0  0  0  0  0  0
   -5.8547    2.0061   -1.3642 O   0  0  0  0  0  0  0  0  0  0  0  0
   -5.1187   -0.0941   -0.6381 C   0  0  0  0  0  0  0  0  0  0  0  0
   -4.1955   -0.3666   -1.6391 C   0  0  0  0  0  0  0  0  0  0  0  0
   -2.9220   -0.8088   -1.3019 C   0  0  0  0  0  0  0  0  0  0  0  0
   -2.4739   -0.7552    0.0117 C   0  0  0  0  0  0  0  0  0  0  0  0
   -1.1324   -1.1191    0.2763 N   0  0  0  0  0  0  0  0  0  0  0  0
   -0.2030   -0.2290    0.9066 C   0  0  0  0  0  0  0  0  0  0  0  0
   -0.5480    0.8225    2.1047 S   0  0  0  0  0  0  0  0  0  0  0  0
    1.1052   -0.5993    0.4866 N   0  0  0  0  0  0  0  0  0  0  0  0
    2.3662   -0.0653    0.8915 C   0  0  0  0  0  0  0  0  0  0  0  0
    3.2592   -0.8344    1.6282 C   0  0  0  0  0  0  0  0  0  0  0  0
    4.6278   -0.7060    1.4246 C   0  0  0  0  0  0  0  0  0  0  0  0
    5.1237    0.1757    0.5014 C   0  0  0  0  0  0  0  0  0  0  0  0
    6.4196    0.0436   -0.1170 C   0  0  0  0  0  0  0  0  0  0  0  0
    7.1912   -0.3285   -0.9110 N   0  0  0  0  0  0  0  0  0  0  0  0
    4.2464    1.1626    0.0692 C   0  0  0  0  0  0  0  0  0  0  0  0
    4.7404    2.3484   -0.6513 C   0  0  0  0  0  0  0  0  0  0  0  0
    4.2367    3.4641    0.0107 F   0  0  0  0  0  0  0  0  0  0  0  0
    6.1011    2.4782   -0.6471 F   0  0  0  0  0  0  0  0  0  0  0  0
    4.1825    2.3566   -1.9047 F   0  0  0  0  0  0  0  0  0  0  0  0
    2.8866    1.1025    0.3492 C   0  0  0  0  0  0  0  0  0  0  0  0
    0.9499   -1.6462   -0.4745 C   0  0  0  0  0  0  0  0  0  0  0  0
    1.9147   -2.2290   -1.0541 O   0  0  0  0  0  0  0  0  0  0  0  0
   -0.3815   -2.2565   -0.2003 C   0  0  0  0  0  0  0  0  0  0  0  0
   -0.9571   -2.8720   -1.4429 C   0  0  0  0  0  0  0  0  0  0  0  0
   -0.1617   -3.2810    0.9044 C   0  0  0  0  0  0  0  0  0  0  0  0
   -3.4655   -0.8165    0.9818 C   0  0  0  0  0  0  0  0  0  0  0  0
   -4.7812   -0.5482    0.6313 C   0  0  0  0  0  0  0  0  0  0  0  0
   -5.6866   -0.2804    1.6167 F   0  0  0  0  0  0  0  0  0  0  0  0
  1  2  1  0
  2  3  1  0
  3  4  2  0
  3  5  1  0
  5  6  2  0
  6  7  1  0
  7  8  2  0
  8  9  1  0
  9 10  1  0
 10 11  2  0
 10 12  1  0
 12 13  1  0
 13 14  2  0
 14 15  1  0
 15 16  2  0
 16 17  1  0
 17 18  3  0
 16 19  1  0
 19 20  1  0
 20 21  1  0
 20 22  1  0
 20 23  1  0
 19 24  2  0
 12 25  1  0
 25 26  2  0
 25 27  1  0
 27 28  1  0
 27 29  1  0
  8 30  1  0
 30 31  2  0
 31 32  1  0
 31  5  1  0
 27  9  1  0
 24 13  1  0
M  END
>  <zinc_id>  (377) 
ZINC000034806477

>  <smiles>  (377) 
CNC(=O)c1ccc(N2C(=S)N(c3ccc(C#N)c(C(F)(F)F)c3)C(=O)C2(C)C)cc1F

$$$$

     RDKit          3D

 24 27  0  0  0  0  0  0  0  0999 V2000
   -4.2975    2.8578    0.4412 C   0  0  0  0  0  0  0  0  0  0  0  0
   -3.7397    1.9385    0.0690 C   0  0  0  0  0  0  0  0  0  0  0  0
   -3.0621    0.8810   -0.6822 C   0  0  2  0  0  0  0  0  0  0  0  0
   -2.6797    1.2889   -1.9422 O   0  0  0  0  0  0  0  0  0  0  0  0
   -3.8687   -0.4139   -0.7000 C   0  0  0  0  0  0  0  0  0  0  0  0
   -2.9166   -1.5282   -0.2546 C   0  0  0  0  0  0  0  0  0  0  0  0
   -1.6438   -0.8074   -0.9660 C   0  0  2  0  0  0  0  0  0  0  0  0
   -0.4159   -1.7341   -0.2512 C   0  0  2  0  0  0  0  0  0  0  0  0
   -0.2583   -1.0577    1.1842 C   0  0  0  0  0  0  0  0  0  0  0  0
    1.0263   -1.3047    1.7976 C   0  0  0  0  0  0  0  0  0  0  0  0
    2.1142   -0.8435    0.9263 C   0  0  0  0  0  0  0  0  0  0  0  0
    3.0622   -0.0336    1.1912 C   0  0  0  0  0  0  0  0  0  0  0  0
    4.3499    0.0577    0.4821 C   0  0  0  0  0  0  0  0  0  0  0  0
    4.7561    1.2158    0.0480 N   0  0  0  0  0  0  0  0  0  0  0  0
    4.9642    1.4839   -1.2878 O   0  0  0  0  0  0  0  0  0  0  0  0
    4.3996   -1.0323   -0.5552 C   0  0  0  0  0  0  0  0  0  0  0  0
    3.0765   -0.7779   -1.2791 C   0  0  0  0  0  0  0  0  0  0  0  0
    1.9898   -1.6507   -0.4365 C   0  0  2  0  0  0  0  0  0  0  0  0
    0.6918   -0.8094   -1.1410 C   0  0  2  0  0  0  0  0  0  0  0  0
    0.7075    0.5363   -0.2756 C   0  0  0  0  0  0  0  0  0  0  0  0
   -0.5997    1.1881   -0.2102 C   0  0  0  0  0  0  0  0  0  0  0  0
   -1.8025    0.4141    0.0739 C   0  0  1  0  0  0  0  0  0  0  0  0
   -2.3002    0.1469    1.3382 C   0  0  0  0  0  0  0  0  0  0  0  0
   -3.5535   -0.0155    1.9315 C   0  0  0  0  0  0  0  0  0  0  0  0
  1  2  3  0
  3  2  1  1
  3  4  1  0
  3  5  1  0
  5  6  1  0
  7  6  1  1
  7  8  1  0
  8  9  1  1
  9 10  1  0
 10 11  1  0
 11 12  2  0
 12 13  1  0
 13 14  2  3
 14 15  1  0
 13 16  1  0
 16 17  1  0
 18 17  1  6
 18 19  1  0
 19 20  1  1
 20 21  1  0
 21 22  1  0
 22 23  1  1
 23 24  1  0
 22  3  1  0
 22  7  1  0
 19  8  1  0
 18 11  1  0
M  END
>  <zinc_id>  (378) 
ZINC000256433948

>  <smiles>  (378) 
C#C[C@]1(O)CC[C@@H]2[C@@H]3CCC4=CC(=NO)CC[C@@H]4[C@@H]3CC[C@]21CC

$$$$

     RDKit          3D

 26 28  0  0  0  0  0  0  0  0999 V2000
   -2.3633   -0.9490    1.8308 C   0  0  0  0  0  0  0  0  0  0  0  0
   -3.0858   -0.2590    0.7360 C   0  0  0  0  0  0  0  0  0  0  0  0
   -3.6272    0.9610    0.8771 N   0  0  0  0  0  0  0  0  0  0  0  0
   -4.7025    1.1063    0.0865 C   0  0  0  0  0  0  0  0  0  0  0  0
   -5.6673    2.0918   -0.0108 C   0  0  0  0  0  0  0  0  0  0  0  0
   -6.9199    1.7266   -0.4857 C   0  0  0  0  0  0  0  0  0  0  0  0
   -7.0766    0.5132   -1.1393 C   0  0  0  0  0  0  0  0  0  0  0  0
   -5.9125   -0.1549   -1.4993 C   0  0  0  0  0  0  0  0  0  0  0  0
   -4.7563    0.0183   -0.7724 C   0  0  0  0  0  0  0  0  0  0  0  0
   -3.7006   -0.7952   -0.3806 C   0  0  0  0  0  0  0  0  0  0  0  0
   -3.4105   -2.1337   -0.9220 C   0  0  0  0  0  0  0  0  0  0  0  0
   -1.9366   -2.4305   -0.9421 C   0  0  0  0  0  0  0  0  0  0  0  0
   -1.1816   -1.1990   -1.1660 N   0  0  0  0  0  0  0  0  0  0  0  0
    0.2246   -1.5289   -1.2697 C   0  0  0  0  0  0  0  0  0  0  0  0
    1.0648   -0.6872   -0.3654 C   0  0  0  0  0  0  0  0  0  0  0  0
    1.7351   -1.3593    0.6440 C   0  0  0  0  0  0  0  0  0  0  0  0
    2.9556   -0.9303    1.1236 C   0  0  0  0  0  0  0  0  0  0  0  0
    3.3657    0.3740    0.8769 C   0  0  0  0  0  0  0  0  0  0  0  0
    4.7256    0.6914    1.3326 C   0  0  0  0  0  0  0  0  0  0  0  0
    5.5481    1.4671    0.6646 C   0  0  0  0  0  0  0  0  0  0  0  0
    6.9584    1.1363    0.4254 C   0  0  0  0  0  0  0  0  0  0  0  0
    7.5561    1.8592   -0.4278 O   0  0  0  0  0  0  0  0  0  0  0  0
    7.5126   -0.1385    0.6668 N   0  0  0  0  0  0  0  0  0  0  0  0
    8.2212   -0.8451   -0.2481 O   0  0  0  0  0  0  0  0  0  0  0  0
    2.8371    0.9621   -0.2634 C   0  0  0  0  0  0  0  0  0  0  0  0
    1.6358    0.5033   -0.7790 C   0  0  0  0  0  0  0  0  0  0  0  0
  1  2  1  0
  2  3  1  0
  3  4  1  0
  4  5  2  0
  5  6  1  0
  6  7  2  0
  7  8  1  0
  8  9  2  0
  9 10  1  0
 10 11  1  0
 11 12  1  0
 12 13  1  0
 13 14  1  0
 14 15  1  0
 15 16  2  0
 16 17  1  0
 17 18  2  0
 18 19  1  0
 19 20  2  0
 20 21  1  0
 21 22  2  0
 21 23  1  0
 23 24  1  0
 18 25  1  0
 25 26  2  0
 10  2  2  0
 26 15  1  0
  9  4  1  0
M  END
>  <zinc_id>  (379) 
ZINC000022010649

>  <smiles>  (379) 
Cc1[nH]c2ccccc2c1CCNCc1ccc(/C=C/C(=O)NO)cc1

$$$$

     RDKit          3D

 25 25  0  0  0  0  0  0  0  0999 V2000
    4.6744    1.1779    1.2673 C   0  0  0  0  0  0  0  0  0  0  0  0
    3.2641    1.7436    1.3880 C   0  0  0  0  0  0  0  0  0  0  0  0
    2.6480    1.1096    2.5926 C   0  0  0  0  0  0  0  0  0  0  0  0
    2.5167    1.5382    0.1382 C   0  0  0  0  0  0  0  0  0  0  0  0
    2.9324    2.2618   -0.9719 C   0  0  0  0  0  0  0  0  0  0  0  0
    2.5523    1.8688   -2.2493 C   0  0  0  0  0  0  0  0  0  0  0  0
    2.0969    0.5707   -2.4423 C   0  0  0  0  0  0  0  0  0  0  0  0
    1.7500   -0.2119   -1.3629 C   0  0  0  0  0  0  0  0  0  0  0  0
    1.6899   -1.6745   -1.5534 C   0  0  0  0  0  0  0  0  0  0  0  0
    1.5254   -2.4434   -0.2759 C   0  0  0  0  0  0  0  0  0  0  0  0
    3.0397   -2.0897   -2.1302 C   0  0  0  0  0  0  0  0  0  0  0  0
    2.0124    0.2673   -0.1032 C   0  0  0  0  0  0  0  0  0  0  0  0
    1.2233   -0.2821    0.9560 N   0  0  0  0  0  0  0  0  0  0  0  0
   -0.1133    0.2301    1.0408 C   0  0  0  0  0  0  0  0  0  0  0  0
   -0.3920    1.3903    0.6104 O   0  0  0  0  0  0  0  0  0  0  0  0
   -1.2307   -0.5190    1.6520 C   0  0  0  0  0  0  0  0  0  0  0  0
   -2.2749   -0.5989    0.6318 N   0  0  0  0  0  0  0  0  0  0  0  0
   -2.8591   -1.9149    0.7369 C   0  0  0  0  0  0  0  0  0  0  0  0
   -3.3551   -2.4181   -0.5807 C   0  0  0  0  0  0  0  0  0  0  0  0
   -3.1171   -3.6360   -0.8410 O   0  0  0  0  0  0  0  0  0  0  0  0
   -4.4389   -1.8518   -1.2390 O   0  0  0  0  0  0  0  0  0  0  0  0
   -3.2889    0.3560    1.0075 C   0  0  0  0  0  0  0  0  0  0  0  0
   -3.5057    1.4115    0.0016 C   0  0  0  0  0  0  0  0  0  0  0  0
   -4.1678    2.4215    0.3671 O   0  0  0  0  0  0  0  0  0  0  0  0
   -3.1820    1.2930   -1.3408 O   0  0  0  0  0  0  0  0  0  0  0  0
  1  2  1  0
  2  3  1  0
  2  4  1  0
  4  5  2  0
  5  6  1  0
  6  7  2  0
  7  8  1  0
  8  9  1  0
  9 10  1  0
  9 11  1  0
  8 12  2  0
 12 13  1  0
 13 14  1  0
 14 15  2  0
 14 16  1  0
 16 17  1  0
 17 18  1  0
 18 19  1  0
 19 20  2  0
 19 21  1  0
 17 22  1  0
 22 23  1  0
 23 24  2  0
 23 25  1  0
 12  4  1  0
M  END
>  <zinc_id>  (380) 
ZINC000000001317

>  <smiles>  (380) 
CC(C)c1cccc(C(C)C)c1NC(=O)CN(CC(=O)O)CC(=O)O

$$$$

     RDKit          3D

 10 11  0  0  0  0  0  0  0  0999 V2000
    3.0220    1.4096    0.1256 N   0  0  0  0  0  0  0  0  0  0  0  0
    1.7004    0.8237   -0.5249 C   0  0  1  0  0  0  0  0  0  0  0  0
    2.2353   -0.8063   -0.4209 C   0  0  0  0  0  0  0  0  0  0  0  0
    1.3149   -0.1283    0.8578 C   0  0  2  0  0  0  0  0  0  0  0  0
   -0.1214   -0.6592    0.3465 C   0  0  0  0  0  0  0  0  0  0  0  0
   -0.5214   -0.6442   -0.9177 C   0  0  0  0  0  0  0  0  0  0  0  0
   -1.8684   -0.4429   -1.2370 C   0  0  0  0  0  0  0  0  0  0  0  0
   -2.4382    0.5528   -0.4423 C   0  0  0  0  0  0  0  0  0  0  0  0
   -2.2007    0.3464    0.9151 C   0  0  0  0  0  0  0  0  0  0  0  0
   -1.1225   -0.4515    1.2979 C   0  0  0  0  0  0  0  0  0  0  0  0
  2  1  1  1
  2  3  1  0
  3  4  1  0
  4  5  1  6
  5  6  2  0
  6  7  1  0
  7  8  2  0
  8  9  1  0
  9 10  2  0
  4  2  1  0
 10  5  1  0
M  END
>  <zinc_id>  (381) 
ZINC000000896663

>  <smiles>  (381) 
N[C@H]1C[C@@H]1c1ccccc1

$$$$

     RDKit          3D

 12 12  0  0  0  0  0  0  0  0999 V2000
   -0.9702    2.4459    1.4309 C   0  0  0  0  0  0  0  0  0  0  0  0
   -1.4820    1.4592    0.4183 C   0  0  0  0  0  0  0  0  0  0  0  0
   -0.8308    0.0583    1.0670 C   0  0  1  0  0  0  0  0  0  0  0  0
   -1.6000   -0.8857   -0.0368 C   0  0  0  0  0  0  0  0  0  0  0  0
   -2.9648   -0.9589    0.4090 N   0  0  0  0  0  0  0  0  0  0  0  0
   -1.4665   -0.5364   -1.2179 O   0  0  0  0  0  0  0  0  0  0  0  0
    0.4904    0.1993    0.1663 N   0  0  0  0  0  0  0  0  0  0  0  0
    1.3869    1.2565    0.6350 C   0  0  0  0  0  0  0  0  0  0  0  0
    2.7600    0.6176    0.5961 C   0  0  0  0  0  0  0  0  0  0  0  0
    2.6199   -0.5118   -0.4153 C   0  0  0  0  0  0  0  0  0  0  0  0
    1.2280   -0.9754   -0.1236 C   0  0  0  0  0  0  0  0  0  0  0  0
    0.8292   -2.1686   -0.0202 O   0  0  0  0  0  0  0  0  0  0  0  0
  1  2  1  0
  3  2  1  6
  3  4  1  0
  4  5  1  0
  4  6  2  0
  3  7  1  0
  7  8  1  0
  8  9  1  0
  9 10  1  0
 10 11  1  0
 11 12  2  0
 11  7  1  0
M  END
>  <zinc_id>  (382) 
ZINC000001547851

>  <smiles>  (382) 
CC[C@@H](C(N)=O)N1CCCC1=O

$$$$

     RDKit          3D

 29 32  0  0  0  0  0  0  0  0999 V2000
    1.3167   -2.6209   -1.6548 O   0  0  0  0  0  0  0  0  0  0  0  0
    2.3410   -2.7719   -0.5407 C   0  0  2  0  0  0  0  0  0  0  0  0
    1.2762   -3.6169    0.3968 C   0  0  0  0  0  0  0  0  0  0  0  0
    0.1865   -2.7918    0.6991 N   0  0  0  0  0  0  0  0  0  0  0  0
   -0.7586   -2.4861   -0.3171 C   0  0  0  0  0  0  0  0  0  0  0  0
   -2.2396   -2.6322    0.4000 C   0  0  2  0  0  0  0  0  0  0  0  0
   -2.9449   -2.8953   -0.9214 O   0  0  0  0  0  0  0  0  0  0  0  0
   -2.4853   -0.9070    0.3512 C   0  0  1  0  0  0  0  0  0  0  0  0
   -2.2817   -0.7582   -1.2741 C   0  0  0  0  0  0  0  0  0  0  0  0
   -3.2002    0.2862   -1.7677 C   0  0  0  0  0  0  0  0  0  0  0  0
   -3.9773    1.0057   -0.7640 C   0  0  0  0  0  0  0  0  0  0  0  0
   -4.0535    2.3787   -0.6287 C   0  0  0  0  0  0  0  0  0  0  0  0
   -4.6323    2.9579    0.4959 C   0  0  0  0  0  0  0  0  0  0  0  0
   -4.0149    4.0824    0.9526 F   0  0  0  0  0  0  0  0  0  0  0  0
   -5.5057    2.2014    1.2626 C   0  0  0  0  0  0  0  0  0  0  0  0
   -5.4306    0.8190    1.0747 C   0  0  0  0  0  0  0  0  0  0  0  0
   -4.5837    0.2153    0.2047 C   0  0  0  0  0  0  0  0  0  0  0  0
   -4.0214   -1.0496    0.2518 O   0  0  0  0  0  0  0  0  0  0  0  0
    1.9233   -1.2408    0.1771 C   0  0  2  0  0  0  0  0  0  0  0  0
    2.2687   -0.4300   -1.2146 C   0  0  0  0  0  0  0  0  0  0  0  0
    2.1767    1.0005   -0.6895 C   0  0  0  0  0  0  0  0  0  0  0  0
    3.4824    1.2126   -0.0154 C   0  0  0  0  0  0  0  0  0  0  0  0
    4.3335    2.2408   -0.2529 C   0  0  0  0  0  0  0  0  0  0  0  0
    5.6165    2.2587    0.2840 C   0  0  0  0  0  0  0  0  0  0  0  0
    6.4910    3.2725    0.0368 F   0  0  0  0  0  0  0  0  0  0  0  0
    6.1331    1.1527    0.9199 C   0  0  0  0  0  0  0  0  0  0  0  0
    5.2863    0.0972    1.1025 C   0  0  0  0  0  0  0  0  0  0  0  0
    3.9524    0.1184    0.6949 C   0  0  0  0  0  0  0  0  0  0  0  0
    3.3454   -1.0995    0.7363 O   0  0  0  0  0  0  0  0  0  0  0  0
  2  1  1  6
  2  3  1  0
  3  4  1  0
  4  5  1  0
  6  5  1  6
  6  7  1  0
  6  8  1  0
  8  9  1  6
  9 10  1  0
 10 11  1  0
 11 12  2  0
 12 13  1  0
 13 14  1  0
 13 15  2  0
 15 16  1  0
 16 17  2  0
 17 18  1  0
  2 19  1  0
 19 20  1  6
 20 21  1  0
 21 22  1  0
 22 23  2  0
 23 24  1  0
 24 25  1  0
 24 26  2  0
 26 27  1  0
 27 28  2  0
 28 29  1  0
 18  8  1  0
 29 19  1  0
 17 11  1  0
 28 22  1  0
M  END
>  <zinc_id>  (383) 
ZINC000001999441

>  <smiles>  (383) 
O[C@@H](CNC[C@@H](O)[C@@H]1CCc2cc(F)ccc2O1)[C@H]1CCc2cc(F)ccc2O1

$$$$

     RDKit          3D

 23 25  0  0  0  0  0  0  0  0999 V2000
    0.9121   -0.1689    1.8463 C   0  0  0  0  0  0  0  0  0  0  0  0
   -0.0353   -1.1787    0.9786 C   0  0  2  0  0  0  0  0  0  0  0  0
    1.1894   -2.2043    0.6604 C   0  0  0  0  0  0  0  0  0  0  0  0
    1.4945   -2.2339   -0.7824 C   0  0  0  0  0  0  0  0  0  0  0  0
    2.3665   -1.0623   -0.9434 N   0  0  0  0  0  0  0  0  0  0  0  0
    3.7496   -1.1375   -0.5691 C   0  0  0  0  0  0  0  0  0  0  0  0
    4.1851   -2.0970    0.0979 O   0  0  0  0  0  0  0  0  0  0  0  0
    4.5757    0.0952   -0.6387 C   0  0  0  0  0  0  0  0  0  0  0  0
    4.9433    0.5673    0.6746 C   0  0  0  0  0  0  0  0  0  0  0  0
    5.1514    0.9625    1.7438 N   0  0  0  0  0  0  0  0  0  0  0  0
    1.6679    0.0859   -0.3587 C   0  0  0  0  0  0  0  0  0  0  0  0
    0.0683   -0.2923   -0.5043 C   0  0  2  0  0  0  0  0  0  0  0  0
   -0.4102    1.0495    0.1706 N   0  0  0  0  0  0  0  0  0  0  0  0
    0.1209    2.2505   -0.4750 C   0  0  0  0  0  0  0  0  0  0  0  0
   -1.8248    1.0801    0.4053 C   0  0  0  0  0  0  0  0  0  0  0  0
   -2.3489    2.2100    0.8797 N   0  0  0  0  0  0  0  0  0  0  0  0
   -3.6811    2.4604    0.8415 C   0  0  0  0  0  0  0  0  0  0  0  0
   -4.5069    1.7222    0.0800 N   0  0  0  0  0  0  0  0  0  0  0  0
   -4.0572    0.4784   -0.2196 C   0  0  0  0  0  0  0  0  0  0  0  0
   -4.6607   -0.5630   -0.8270 N   0  0  0  0  0  0  0  0  0  0  0  0
   -3.7119   -1.4551   -1.1962 C   0  0  0  0  0  0  0  0  0  0  0  0
   -2.4900   -0.8057   -1.1593 C   0  0  0  0  0  0  0  0  0  0  0  0
   -2.6977    0.2367   -0.2650 C   0  0  0  0  0  0  0  0  0  0  0  0
  2  1  1  1
  2  3  1  0
  3  4  1  0
  4  5  1  0
  5  6  1  0
  6  7  2  0
  6  8  1  0
  8  9  1  0
  9 10  3  0
  5 11  1  0
 11 12  1  0
 12 13  1  1
 13 14  1  0
 13 15  1  0
 15 16  2  0
 16 17  1  0
 17 18  2  0
 18 19  1  0
 19 20  1  0
 20 21  1  0
 21 22  2  0
 22 23  1  0
 12  2  1  0
 23 15  1  0
 23 19  2  0
M  END
>  <zinc_id>  (384) 
ZINC000003818808

>  <smiles>  (384) 
C[C@@H]1CCN(C(=O)CC#N)C[C@@H]1N(C)c1ncnc2[nH]ccc12

$$$$

     RDKit          3D

 26 28  0  0  0  0  0  0  0  0999 V2000
   -5.3784    2.0686    2.6131 Cl  0  0  0  0  0  0  0  0  0  0  0  0
   -4.9962    1.0454    1.2407 C   0  0  0  0  0  0  0  0  0  0  0  0
   -4.8227   -0.3168    1.3852 C   0  0  0  0  0  0  0  0  0  0  0  0
   -3.9629   -1.0030    0.5584 C   0  0  0  0  0  0  0  0  0  0  0  0
   -3.2563   -0.3655   -0.4533 C   0  0  0  0  0  0  0  0  0  0  0  0
   -2.0317   -1.0202   -0.9368 C   0  0  0  0  0  0  0  0  0  0  0  0
   -1.1405   -0.1611   -1.5978 O   0  0  0  0  0  0  0  0  0  0  0  0
   -0.0475    0.4077   -0.9805 N   0  0  0  0  0  0  0  0  0  0  0  0
    1.0229   -0.2511   -0.6846 C   0  0  0  0  0  0  0  0  0  0  0  0
    1.1471   -1.6594   -1.1668 C   0  0  0  0  0  0  0  0  0  0  0  0
    1.5140   -2.5627   -0.0790 N   0  0  0  0  0  0  0  0  0  0  0  0
    0.6881   -3.2686    0.7260 C   0  0  0  0  0  0  0  0  0  0  0  0
    1.4399   -4.1443    1.4945 C   0  0  0  0  0  0  0  0  0  0  0  0
    2.5859   -4.2965    0.7927 N   0  0  0  0  0  0  0  0  0  0  0  0
    2.6995   -3.2162   -0.0014 C   0  0  0  0  0  0  0  0  0  0  0  0
    2.2554    0.5367   -0.5580 C   0  0  0  0  0  0  0  0  0  0  0  0
    2.7936    1.2184   -1.6433 C   0  0  0  0  0  0  0  0  0  0  0  0
    3.5767    2.3484   -1.4842 C   0  0  0  0  0  0  0  0  0  0  0  0
    3.7937    2.8659   -0.2151 C   0  0  0  0  0  0  0  0  0  0  0  0
    4.8773    4.2157   -0.0045 Cl  0  0  0  0  0  0  0  0  0  0  0  0
    3.2404    2.2218    0.8568 C   0  0  0  0  0  0  0  0  0  0  0  0
    2.7299    0.9434    0.6842 C   0  0  0  0  0  0  0  0  0  0  0  0
    2.1753    0.1079    2.1078 Cl  0  0  0  0  0  0  0  0  0  0  0  0
   -3.6252    0.9284   -0.7314 C   0  0  0  0  0  0  0  0  0  0  0  0
   -2.8106    1.7368   -2.0350 Cl  0  0  0  0  0  0  0  0  0  0  0  0
   -4.4676    1.6203    0.1123 C   0  0  0  0  0  0  0  0  0  0  0  0
  1  2  1  0
  2  3  2  0
  3  4  1  0
  4  5  2  0
  5  6  1  0
  6  7  1  0
  7  8  1  0
  8  9  2  0
  9 10  1  0
 10 11  1  0
 11 12  1  0
 12 13  2  0
 13 14  1  0
 14 15  2  0
  9 16  1  0
 16 17  2  0
 17 18  1  0
 18 19  2  0
 19 20  1  0
 19 21  1  0
 21 22  2  0
 22 23  1  0
  5 24  1  0
 24 25  1  0
 24 26  2  0
 26  2  1  0
 15 11  1  0
 22 16  1  0
M  END
>  <zinc_id>  (385) 
ZINC000003873295

>  <smiles>  (385) 
Clc1ccc(CO/N=C(\Cn2ccnc2)c2ccc(Cl)cc2Cl)c(Cl)c1

$$$$

     RDKit          3D

 18 20  0  0  0  0  0  0  0  0999 V2000
    4.5989    1.9126   -0.3404 C   0  0  0  0  0  0  0  0  0  0  0  0
    4.7974    0.5733   -0.8893 C   0  0  0  0  0  0  0  0  0  0  0  0
    3.9923   -0.4898   -0.2151 C   0  0  0  0  0  0  0  0  0  0  0  0
    4.2330   -1.6902   -0.5482 O   0  0  0  0  0  0  0  0  0  0  0  0
    3.3323   -0.2966    1.0207 N   0  0  0  0  0  0  0  0  0  0  0  0
    2.1520   -1.1313    1.2415 C   0  0  0  0  0  0  0  0  0  0  0  0
    1.1102   -0.3845    0.1742 C   0  0  2  0  0  0  0  0  0  0  0  0
    0.1364    0.2753    1.4580 C   0  0  0  0  0  0  0  0  0  0  0  0
   -0.2896   -1.2583    0.7455 C   0  0  1  0  0  0  0  0  0  0  0  0
   -1.3036   -0.5521   -0.3346 C   0  0  0  0  0  0  0  0  0  0  0  0
   -0.9611   -0.5807   -1.6370 C   0  0  0  0  0  0  0  0  0  0  0  0
   -1.7532    0.2460   -2.4400 C   0  0  0  0  0  0  0  0  0  0  0  0
   -2.5732    1.2013   -1.8500 C   0  0  0  0  0  0  0  0  0  0  0  0
   -3.2026    0.7514   -0.6901 C   0  0  0  0  0  0  0  0  0  0  0  0
   -2.4715   -0.0748    0.1645 C   0  0  0  0  0  0  0  0  0  0  0  0
   -3.2967   -0.4626    1.3347 C   0  0  0  0  0  0  0  0  0  0  0  0
   -4.4033    0.5465    1.2465 C   0  0  0  0  0  0  0  0  0  0  0  0
   -4.0979    1.4144    0.1620 O   0  0  0  0  0  0  0  0  0  0  0  0
  1  2  1  0
  2  3  1  0
  3  4  2  0
  3  5  1  0
  5  6  1  0
  7  6  1  1
  7  8  1  0
  8  9  1  0
  9 10  1  6
 10 11  2  0
 11 12  1  0
 12 13  2  0
 13 14  1  0
 14 15  2  0
 15 16  1  0
 16 17  1  0
 17 18  1  0
  9  7  1  0
 15 10  1  0
 18 14  1  0
M  END
>  <zinc_id>  (386) 
ZINC000004392649

>  <smiles>  (386) 
CCC(=O)NC[C@@H]1C[C@H]1c1cccc2c1CCO2

$$$$

     RDKit          3D

 37 38  0  0  0  0  0  0  0  0999 V2000
   10.6034    3.0204    0.2689 C   0  0  0  0  0  0  0  0  0  0  0  0
   10.8945    1.5384    0.2333 C   0  0  0  0  0  0  0  0  0  0  0  0
    9.8395    0.8316    1.0647 C   0  0  0  0  0  0  0  0  0  0  0  0
    9.1725   -0.1938    0.1746 C   0  0  0  0  0  0  0  0  0  0  0  0
    9.3142   -1.5725    0.7707 C   0  0  0  0  0  0  0  0  0  0  0  0
    7.9546   -2.2155    0.9914 C   0  0  0  0  0  0  0  0  0  0  0  0
    6.9032   -1.6153    0.0803 C   0  0  0  0  0  0  0  0  0  0  0  0
    6.4967   -0.2972    0.6952 C   0  0  0  0  0  0  0  0  0  0  0  0
    5.4928    0.4341   -0.1853 C   0  0  0  0  0  0  0  0  0  0  0  0
    4.3767    0.8757    0.7555 C   0  0  0  0  0  0  0  0  0  0  0  0
    3.9834   -0.3746    1.5343 C   0  0  0  0  0  0  0  0  0  0  0  0
    3.5893   -1.3960    0.4737 C   0  0  0  0  0  0  0  0  0  0  0  0
    2.4239   -0.7893   -0.2999 C   0  0  0  0  0  0  0  0  0  0  0  0
    1.2194   -0.8795    0.6239 C   0  0  0  0  0  0  0  0  0  0  0  0
   -0.0290   -0.9768   -0.2289 C   0  0  0  0  0  0  0  0  0  0  0  0
   -0.0550    0.2433   -1.1285 C   0  0  0  0  0  0  0  0  0  0  0  0
   -0.7267    1.3126   -0.4117 N   0  0  0  0  0  0  0  0  0  0  0  0
   -0.3225    1.3592    0.9879 C   0  0  0  0  0  0  0  0  0  0  0  0
   -0.4390    2.5917   -1.0296 C   0  0  0  0  0  0  0  0  0  0  0  0
   -2.1593    1.1101   -0.4980 C   0  0  0  0  0  0  0  0  0  0  0  0
   -2.5354   -0.2330   -1.0492 C   0  0  0  0  0  0  0  0  0  0  0  0
   -3.2885   -1.0329   -0.0934 N   0  0  0  0  0  0  0  0  0  0  0  0
   -3.7116   -0.3939    1.1450 C   0  0  0  0  0  0  0  0  0  0  0  0
   -4.9795    0.3188    0.8530 C   0  0  0  0  0  0  0  0  0  0  0  0
   -5.6789    0.9328    1.8732 C   0  0  0  0  0  0  0  0  0  0  0  0
   -6.5344    1.9787    1.5594 C   0  0  0  0  0  0  0  0  0  0  0  0
   -6.6847    2.4273    0.2572 C   0  0  0  0  0  0  0  0  0  0  0  0
   -6.9776    3.7584   -0.0306 O   0  0  0  0  0  0  0  0  0  0  0  0
   -5.9073    4.6167   -0.4121 C   0  0  0  0  0  0  0  0  0  0  0  0
   -6.3243    1.5375   -0.7355 C   0  0  0  0  0  0  0  0  0  0  0  0
   -5.4706    0.4923   -0.4243 C   0  0  0  0  0  0  0  0  0  0  0  0
   -4.0649   -2.1052   -0.6384 C   0  0  0  0  0  0  0  0  0  0  0  0
   -4.5589   -3.0750    0.1688 N   0  0  0  0  0  0  0  0  0  0  0  0
   -5.6812   -3.7377   -0.1825 C   0  0  0  0  0  0  0  0  0  0  0  0
   -6.2847   -3.4152   -1.3910 C   0  0  0  0  0  0  0  0  0  0  0  0
   -5.4549   -2.8968   -2.3768 C   0  0  0  0  0  0  0  0  0  0  0  0
   -4.3954   -2.1795   -1.9353 N   0  0  0  0  0  0  0  0  0  0  0  0
  1  2  1  0
  2  3  1  0
  3  4  1  0
  4  5  1  0
  5  6  1  0
  6  7  1  0
  7  8  1  0
  8  9  1  0
  9 10  1  0
 10 11  1  0
 11 12  1  0
 12 13  1  0
 13 14  1  0
 14 15  1  0
 15 16  1  0
 16 17  1  0
 17 18  1  0
 17 19  1  0
 17 20  1  0
 20 21  1  0
 21 22  1  0
 22 23  1  0
 23 24  1  0
 24 25  2  0
 25 26  1  0
 26 27  2  0
 27 28  1  0
 28 29  1  0
 27 30  1  0
 30 31  2  0
 22 32  1  0
 32 33  2  0
 33 34  1  0
 34 35  2  0
 35 36  1  0
 36 37  2  0
 31 24  1  0
 37 32  1  0
M  CHG  1  17   1
M  END
>  <zinc_id>  (387) 
ZINC000008035268

>  <smiles>  (387) 
CCCCCCCCCCCCCCCC[N+](C)(C)CCN(Cc1ccc(OC)cc1)c1ncccn1

$$$$

     RDKit          3D

 24 26  0  0  0  0  0  0  0  0999 V2000
    5.0898   -0.6244    0.6253 C   0  0  0  0  0  0  0  0  0  0  0  0
    4.1770    0.1903    0.9916 C   0  0  0  0  0  0  0  0  0  0  0  0
    4.4932    1.0686    2.1402 C   0  0  0  0  0  0  0  0  0  0  0  0
    3.5457    0.8249   -0.0379 N   0  0  1  0  0  0  0  0  0  0  0  0
    3.9469    2.0671   -0.3304 C   0  0  0  0  0  0  0  0  0  0  0  0
    3.4402   -0.1676   -1.2714 C   0  0  2  0  0  0  0  0  0  0  0  0
    3.2981    1.2397   -2.1136 C   0  0  0  0  0  0  0  0  0  0  0  0
    1.9512    1.3248   -1.4585 C   0  0  0  0  0  0  0  0  0  0  0  0
    2.0205    0.9671    0.1385 C   0  0  1  0  0  0  0  0  0  0  0  0
    2.1014   -0.6630    0.3818 C   0  0  0  0  0  0  0  0  0  0  0  0
    1.2106   -1.4601   -0.6837 C   0  0  1  0  0  0  0  0  0  0  0  0
   -0.0584   -0.8262   -0.0625 O   0  0  0  0  0  0  0  0  0  0  0  0
   -1.1162   -0.4793   -0.6396 C   0  0  0  0  0  0  0  0  0  0  0  0
   -0.9793    0.0703   -1.7309 O   0  0  0  0  0  0  0  0  0  0  0  0
   -2.4874   -1.3076   -0.7715 C   0  0  1  0  0  0  0  0  0  0  0  0
   -2.2619   -2.1887    0.5974 C   0  0  0  0  0  0  0  0  0  0  0  0
   -3.3341   -3.0846    0.4413 O   0  0  0  0  0  0  0  0  0  0  0  0
   -3.3249   -0.2006    0.0478 C   0  0  0  0  0  0  0  0  0  0  0  0
   -3.3106    1.0655   -0.4451 C   0  0  0  0  0  0  0  0  0  0  0  0
   -4.3848    1.8903   -0.1505 C   0  0  0  0  0  0  0  0  0  0  0  0
   -5.6216    1.3194    0.1152 C   0  0  0  0  0  0  0  0  0  0  0  0
   -5.6662    0.0268    0.6228 C   0  0  0  0  0  0  0  0  0  0  0  0
   -4.5463   -0.7434    0.4102 C   0  0  0  0  0  0  0  0  0  0  0  0
    1.8167   -0.3094   -1.6357 C   0  0  0  0  0  0  0  0  0  0  0  0
  1  2  1  0
  2  3  1  0
  4  2  1  1
  4  5  1  0
  4  6  1  0
  6  7  1  6
  7  8  1  0
  9  8  1  6
  9 10  1  0
 10 11  1  0
 11 12  1  1
 12 13  1  0
 13 14  2  0
 15 13  1  1
 15 16  1  0
 16 17  1  0
 15 18  1  0
 18 19  2  0
 19 20  1  0
 20 21  2  0
 21 22  1  0
 22 23  2  0
 11 24  1  0
  9  4  1  0
 23 18  1  0
 24  6  1  0
M  CHG  1   4   1
M  END
>  <zinc_id>  (388) 
ZINC000253476027

>  <smiles>  (388) 
CC(C)[N@+]1(C)[C@H]2CC[C@@H]1C[C@H](OC(=O)[C@@H](CO)c1ccccc1)C2

$$$$

     RDKit          3D

 23 23  0  0  0  0  0  0  0  0999 V2000
    5.6030    1.3803    0.7998 C   0  0  0  0  0  0  0  0  0  0  0  0
    5.7752    1.1086    0.8910 C   0  0  0  0  0  0  0  0  0  0  0  0
    7.0821    1.0891    0.0961 C   0  0  0  0  0  0  0  0  0  0  0  0
    4.9260   -0.0858    0.5843 C   0  0  0  0  0  0  0  0  0  0  0  0
    5.1830   -1.1898    1.0925 O   0  0  0  0  0  0  0  0  0  0  0  0
    4.0161    0.1130   -0.4422 O   0  0  0  0  0  0  0  0  0  0  0  0
    2.8843   -0.9555   -0.4538 C   0  0  2  0  0  0  0  0  0  0  0  0
    3.2858   -1.4189   -2.0005 C   0  0  0  0  0  0  0  0  0  0  0  0
    1.8560    0.0846   -0.9870 O   0  0  0  0  0  0  0  0  0  0  0  0
    0.5968   -0.1135   -0.4520 C   0  0  0  0  0  0  0  0  0  0  0  0
    0.4179   -0.7443    0.6346 O   0  0  0  0  0  0  0  0  0  0  0  0
   -0.4851    0.7358   -0.8425 N   0  0  0  0  0  0  0  0  0  0  0  0
   -1.5101    1.1567    0.0792 C   0  0  0  0  0  0  0  0  0  0  0  0
   -2.8215    0.4039   -0.1351 C   0  0  0  0  0  0  0  0  0  0  0  0
   -3.7920    1.5035   -0.5557 C   0  0  0  0  0  0  0  0  0  0  0  0
   -5.1933    1.0474   -0.5714 C   0  0  0  0  0  0  0  0  0  0  0  0
   -5.8766    1.3683   -1.5911 O   0  0  0  0  0  0  0  0  0  0  0  0
   -5.8769    1.0507    0.6458 O   0  0  0  0  0  0  0  0  0  0  0  0
   -2.5724   -0.5924   -1.2075 C   0  0  0  0  0  0  0  0  0  0  0  0
   -3.3084   -1.8638   -1.1482 C   0  0  0  0  0  0  0  0  0  0  0  0
   -3.8673   -2.2666    0.1736 C   0  0  0  0  0  0  0  0  0  0  0  0
   -3.0788   -1.6494    1.2889 C   0  0  0  0  0  0  0  0  0  0  0  0
   -3.2437   -0.1619    1.1820 C   0  0  0  0  0  0  0  0  0  0  0  0
  1  2  1  0
  2  3  1  0
  2  4  1  0
  4  5  2  0
  4  6  1  0
  7  6  1  6
  7  8  1  0
  7  9  1  0
  9 10  1  0
 10 11  2  0
 10 12  1  0
 12 13  1  0
 13 14  1  0
 14 15  1  0
 15 16  1  0
 16 17  2  0
 16 18  1  0
 14 19  1  0
 19 20  1  0
 20 21  1  0
 21 22  1  0
 22 23  1  0
 23 14  1  0
M  END
>  <zinc_id>  (389) 
ZINC000013973998

>  <smiles>  (389) 
CC(C)C(=O)O[C@H](C)OC(=O)NCC1(CC(=O)O)CCCCC1

$$$$

     RDKit          3D

 24 23  0  0  0  0  0  0  0  0999 V2000
    0.7555    3.2040    0.3561 O   0  0  0  0  0  0  0  0  0  0  0  0
    2.1167    2.6686    0.7046 P   0  0  0  0  0  0  0  0  0  0  0  0
    2.7595    3.7117    1.8857 O   0  0  0  0  0  0  0  0  0  0  0  0
    3.1587    2.7659   -0.6339 O   0  0  0  0  0  0  0  0  0  0  0  0
    2.0678    1.0208    1.4204 C   0  0  0  0  0  0  0  0  0  0  0  0
    1.6538   -0.0043    0.4986 N   0  0  0  0  0  0  0  0  0  0  0  0
    0.3336    0.3185   -0.0071 C   0  0  0  0  0  0  0  0  0  0  0  0
   -0.2148   -0.8198   -0.8585 C   0  0  0  0  0  0  0  0  0  0  0  0
   -1.6243   -0.8838   -0.5731 N   0  0  0  0  0  0  0  0  0  0  0  0
   -2.4438   -0.7945   -1.7489 C   0  0  0  0  0  0  0  0  0  0  0  0
   -3.0380    0.9202   -1.9023 P   0  0  0  0  0  0  0  0  0  0  0  0
   -2.1742    1.6060   -2.9211 O   0  0  0  0  0  0  0  0  0  0  0  0
   -4.6581    0.8643   -2.3501 O   0  0  0  0  0  0  0  0  0  0  0  0
   -2.8316    1.7409   -0.4300 O   0  0  0  0  0  0  0  0  0  0  0  0
   -1.9402   -2.0696    0.1784 C   0  0  0  0  0  0  0  0  0  0  0  0
   -2.8711   -1.6845    1.6749 P   0  0  0  0  0  0  0  0  0  0  0  0
   -2.0379   -0.8066    2.5839 O   0  0  0  0  0  0  0  0  0  0  0  0
   -3.2978   -3.1377    2.4277 O   0  0  0  0  0  0  0  0  0  0  0  0
   -4.3173   -0.8646    1.3285 O   0  0  0  0  0  0  0  0  0  0  0  0
    2.5742   -0.1999   -0.5912 C   0  0  0  0  0  0  0  0  0  0  0  0
    3.7226   -1.5576   -0.3254 P   0  0  0  0  0  0  0  0  0  0  0  0
    4.7166   -1.5365   -1.4709 O   0  0  0  0  0  0  0  0  0  0  0  0
    2.9785   -3.0637   -0.3425 O   0  0  0  0  0  0  0  0  0  0  0  0
    4.6116   -1.3979    1.0962 O   0  0  0  0  0  0  0  0  0  0  0  0
  1  2  2  0
  2  3  1  0
  2  4  1  0
  2  5  1  0
  5  6  1  0
  6  7  1  0
  7  8  1  0
  8  9  1  0
  9 10  1  0
 10 11  1  0
 11 12  2  0
 11 13  1  0
 11 14  1  0
  9 15  1  0
 15 16  1  0
 16 17  2  0
 16 18  1  0
 16 19  1  0
  6 20  1  0
 20 21  1  0
 21 22  2  0
 21 23  1  0
 21 24  1  0
M  END
>  <zinc_id>  (390) 
ZINC000019855121

>  <smiles>  (390) 
O=P(O)(O)CN(CCN(CP(=O)(O)O)CP(=O)(O)O)CP(=O)(O)O

$$$$

     RDKit          3D

 23 26  0  0  0  0  0  0  0  0999 V2000
    4.3023   -2.4389    1.3326 C   0  0  0  0  0  0  0  0  0  0  0  0
    3.7066   -1.6745    0.2446 N   0  0  0  0  0  0  0  0  0  0  0  0
    2.6243   -2.0018   -0.4705 N   0  0  0  0  0  0  0  0  0  0  0  0
    1.7910   -0.9317   -0.4646 C   0  0  0  0  0  0  0  0  0  0  0  0
    0.3259   -0.8886   -0.2935 C   0  0  0  0  0  0  0  0  0  0  0  0
   -0.2182   -2.0247   -0.4893 O   0  0  0  0  0  0  0  0  0  0  0  0
   -0.3044   -0.0077    0.6542 N   0  0  0  0  0  0  0  0  0  0  0  0
   -1.8226   -0.4069    0.7897 C   0  0  1  0  0  0  0  0  0  0  0  0
   -2.2294    1.0649    1.3600 C   0  0  0  0  0  0  0  0  0  0  0  0
   -3.7830    1.2961    0.8250 C   0  0  1  0  0  0  0  0  0  0  0  0
   -3.2292    1.9600   -0.5639 C   0  0  0  0  0  0  0  0  0  0  0  0
   -3.8018    1.5704   -1.7517 C   0  0  0  0  0  0  0  0  0  0  0  0
   -4.4520    0.3301   -1.6809 C   0  0  0  0  0  0  0  0  0  0  0  0
   -3.6011   -0.7826   -0.8164 C   0  0  1  0  0  0  0  0  0  0  0  0
   -2.1211   -0.0545   -0.7892 C   0  0  0  0  0  0  0  0  0  0  0  0
   -4.0841   -0.1664    0.4867 N   0  0  0  0  0  0  0  0  0  0  0  0
   -4.4405   -0.9756    1.4698 C   0  0  0  0  0  0  0  0  0  0  0  0
    2.7007    0.1207   -0.5559 C   0  0  0  0  0  0  0  0  0  0  0  0
    2.4767    1.4696   -0.7236 C   0  0  0  0  0  0  0  0  0  0  0  0
    3.4517    2.3345   -0.2661 C   0  0  0  0  0  0  0  0  0  0  0  0
    4.2269    1.9309    0.8162 C   0  0  0  0  0  0  0  0  0  0  0  0
    4.6348    0.6005    0.7859 C   0  0  0  0  0  0  0  0  0  0  0  0
    3.8466   -0.3239    0.1009 C   0  0  0  0  0  0  0  0  0  0  0  0
  1  2  1  0
  2  3  1  0
  3  4  2  0
  4  5  1  0
  5  6  2  0
  5  7  1  0
  8  7  1  6
  8  9  1  0
 10  9  1  1
 10 11  1  0
 11 12  1  0
 12 13  1  0
 14 13  1  6
 14 15  1  0
 14 16  1  0
 16 17  1  0
  4 18  1  0
 18 19  2  0
 19 20  1  0
 20 21  2  0
 21 22  1  0
 22 23  2  0
 23  2  1  0
 15  8  1  0
 23 18  1  0
 16 10  1  0
M  END
>  <zinc_id>  (391) 
ZINC000100018854

>  <smiles>  (391) 
CN1[C@H]2CCC[C@@H]1C[C@H](NC(=O)c1nn(C)c3ccccc13)C2

$$$$

     RDKit          3D

 24 27  0  0  0  0  0  0  0  0999 V2000
   -4.6599   -1.7150    0.6208 C   0  0  0  0  0  0  0  0  0  0  0  0
   -4.2476   -1.1271    0.0655 C   0  0  0  0  0  0  0  0  0  0  0  0
   -3.4064   -0.2048   -0.7292 C   0  0  2  0  0  0  0  0  0  0  0  0
   -4.1439    0.7243   -1.4220 O   0  0  0  0  0  0  0  0  0  0  0  0
   -2.4143   -0.9190   -1.5893 C   0  0  0  0  0  0  0  0  0  0  0  0
   -1.1696   -0.1404   -1.6818 C   0  0  0  0  0  0  0  0  0  0  0  0
   -1.3658    1.1285   -0.6999 C   0  0  2  0  0  0  0  0  0  0  0  0
   -0.1701    0.8488    0.4678 C   0  0  2  0  0  0  0  0  0  0  0  0
    0.8894    1.8133   -0.2652 C   0  0  0  0  0  0  0  0  0  0  0  0
    1.8707    1.7954    0.9124 C   0  0  0  0  0  0  0  0  0  0  0  0
    2.4506    0.4287    0.7258 C   0  0  0  0  0  0  0  0  0  0  0  0
    3.7423    0.1895    0.9756 C   0  0  0  0  0  0  0  0  0  0  0  0
    4.2980   -0.7315   -0.0342 C   0  0  0  0  0  0  0  0  0  0  0  0
    5.4731   -0.6660   -0.4924 N   0  0  0  0  0  0  0  0  0  0  0  0
    6.1825    0.5045   -0.2831 O   0  0  0  0  0  0  0  0  0  0  0  0
    3.1531   -1.2949   -0.8304 C   0  0  0  0  0  0  0  0  0  0  0  0
    2.3173   -1.9218    0.2091 C   0  0  0  0  0  0  0  0  0  0  0  0
    1.5219   -0.8105    1.0900 C   0  0  2  0  0  0  0  0  0  0  0  0
    0.4317   -0.5673   -0.1731 C   0  0  1  0  0  0  0  0  0  0  0  0
   -0.6966   -1.4557    0.5522 C   0  0  0  0  0  0  0  0  0  0  0  0
   -1.8450   -0.6986    1.0057 C   0  0  0  0  0  0  0  0  0  0  0  0
   -2.4430    0.3855    0.2494 C   0  0  2  0  0  0  0  0  0  0  0  0
   -2.9936    1.5476    1.0102 C   0  0  0  0  0  0  0  0  0  0  0  0
   -2.7748    2.8864    0.3160 C   0  0  0  0  0  0  0  0  0  0  0  0
  1  2  3  0
  3  2  1  1
  3  4  1  0
  3  5  1  0
  5  6  1  0
  7  6  1  6
  7  8  1  0
  8  9  1  6
  9 10  1  0
 10 11  1  0
 11 12  2  0
 12 13  1  0
 13 14  2  3
 14 15  1  0
 13 16  1  0
 16 17  1  0
 18 17  1  6
 18 19  1  0
 19 20  1  1
 20 21  1  0
 21 22  1  0
 22 23  1  1
 23 24  1  0
 22  3  1  0
 22  7  1  0
 19  8  1  0
 18 11  1  0
M  END
>  <zinc_id>  (392) 
ZINC000256433946

>  <smiles>  (392) 
C#C[C@]1(O)CC[C@@H]2[C@@H]3CCC4=CC(=NO)CC[C@@H]4[C@H]3CC[C@@]21CC

$$$$

     RDKit          3D

 17 18  0  0  0  0  0  0  0  0999 V2000
   -3.8309    1.1843    0.1139 N   0  0  0  0  0  0  0  0  0  0  0  0
   -3.4171    0.0500    0.0563 C   0  0  0  0  0  0  0  0  0  0  0  0
   -3.7899   -0.7387   -0.8129 O   0  0  0  0  0  0  0  0  0  0  0  0
   -2.1731   -0.4082    0.9805 C   0  0  2  0  0  0  0  0  0  0  0  0
   -1.5208    1.0943    0.8956 C   0  0  0  0  0  0  0  0  0  0  0  0
   -0.2956    1.1818    0.3340 C   0  0  0  0  0  0  0  0  0  0  0  0
   -0.0625    0.8540   -1.2448 C   0  0  2  0  0  0  0  0  0  0  0  0
   -1.3483   -0.1477   -1.4278 C   0  0  0  0  0  0  0  0  0  0  0  0
   -1.2943   -0.9144   -0.2266 N   0  0  0  0  0  0  0  0  0  0  0  0
    0.1032   -1.2396   -0.1276 C   0  0  0  0  0  0  0  0  0  0  0  0
    0.5738   -2.0809    0.6830 O   0  0  0  0  0  0  0  0  0  0  0  0
    0.8791   -0.3621   -0.9040 N   0  0  0  0  0  0  0  0  0  0  0  0
    2.1428   -0.3636   -1.2734 O   0  0  0  0  0  0  0  0  0  0  0  0
    3.2156    0.3187   -0.2164 S   0  0  0  0  0  0  0  0  0  0  0  0
    4.1506    1.2105   -1.0046 O   0  0  0  0  0  0  0  0  0  0  0  0
    2.6211    1.2245    0.8061 O   0  0  0  0  0  0  0  0  0  0  0  0
    4.0463   -0.8629    0.6310 O   0  0  0  0  0  0  0  0  0  0  0  0
  1  2  1  0
  2  3  2  0
  4  2  1  6
  4  5  1  0
  5  6  1  0
  7  6  1  1
  7  8  1  0
  8  9  1  0
  9 10  1  0
 10 11  2  0
 10 12  1  0
 12 13  1  0
 13 14  1  0
 14 15  2  0
 14 16  2  0
 14 17  1  0
  9  4  1  0
 12  7  1  0
M  END
>  <zinc_id>  (393) 
ZINC000009302239

>  <smiles>  (393) 
NC(=O)[C@@H]1CC[C@@H]2CN1C(=O)N2OS(=O)(=O)O

$$$$

     RDKit          3D

 54 60  0  0  0  0  0  0  0  0999 V2000
    6.2612   -1.7127   -0.7118 C   0  0  0  0  0  0  0  0  0  0  0  0
    5.8574   -1.6192   -1.0447 C   0  0  0  0  0  0  0  0  0  0  0  0
    4.2728   -1.7167   -0.5813 C   0  0  2  0  0  0  0  0  0  0  0  0
    3.6828   -1.5720   -2.1353 C   0  0  0  0  0  0  0  0  0  0  0  0
    3.8268   -0.2394   -1.1617 C   0  0  1  0  0  0  0  0  0  0  0  0
    2.5142    0.1229   -0.8084 N   0  0  0  0  0  0  0  0  0  0  0  0
    2.1123    0.2713    0.5607 C   0  0  0  0  0  0  0  0  0  0  0  0
    2.6961   -0.1312    1.4653 O   0  0  0  0  0  0  0  0  0  0  0  0
    0.5236    0.4402    0.3790 C   0  0  2  0  0  0  0  0  0  0  0  0
    0.0542    0.5556    1.9583 C   0  0  0  0  0  0  0  0  0  0  0  0
   -1.5159    0.2569    1.5072 C   0  0  2  0  0  0  0  0  0  0  0  0
   -1.1346   -0.8379    0.3226 C   0  0  0  0  0  0  0  0  0  0  0  0
    0.1857   -1.0982    0.4571 N   0  0  0  0  0  0  0  0  0  0  0  0
    0.0455   -1.9463    1.5696 C   0  0  0  0  0  0  0  0  0  0  0  0
    0.9613   -1.8671    2.4802 O   0  0  0  0  0  0  0  0  0  0  0  0
    0.3990   -3.5107    1.2779 C   0  0  2  0  0  0  0  0  0  0  0  0
   -0.2138   -3.8480   -0.1726 C   0  0  0  0  0  0  0  0  0  0  0  0
    1.0169   -3.0644   -0.8106 C   0  0  0  0  0  0  0  0  0  0  0  0
   -0.9196   -3.4329   -1.2022 C   0  0  0  0  0  0  0  0  0  0  0  0
    0.5813   -5.1879   -0.4142 C   0  0  0  0  0  0  0  0  0  0  0  0
   -0.5470   -4.0046    2.4477 N   0  0  0  0  0  0  0  0  0  0  0  0
   -0.8076   -5.3921    2.2093 C   0  0  0  0  0  0  0  0  0  0  0  0
   -0.4615   -6.3305    2.9347 O   0  0  0  0  0  0  0  0  0  0  0  0
   -1.7816   -5.3096    1.2610 O   0  0  0  0  0  0  0  0  0  0  0  0
   -2.3386   -3.8975    1.6687 C   0  0  2  0  0  0  0  0  0  0  0  0
   -3.7096   -4.6266    2.3783 C   0  0  0  0  0  0  0  0  0  0  0  0
   -3.7604   -4.1271    0.7337 C   0  0  1  0  0  0  0  0  0  0  0  0
   -4.2345   -2.5955    0.9972 C   0  0  0  0  0  0  0  0  0  0  0  0
   -4.8063   -2.1107    2.1221 C   0  0  0  0  0  0  0  0  0  0  0  0
   -5.8202   -1.0613    1.5444 C   0  0  0  0  0  0  0  0  0  0  0  0
   -5.0826   -0.4680    0.3597 C   0  0  0  0  0  0  0  0  0  0  0  0
   -3.9400    0.3469    0.9732 C   0  0  0  0  0  0  0  0  0  0  0  0
   -3.5975    1.2271   -0.1822 C   0  0  0  0  0  0  0  0  0  0  0  0
   -4.5494    1.7010   -1.0245 N   0  0  0  0  0  0  0  0  0  0  0  0
   -4.3753    2.8662   -1.6646 C   0  0  0  0  0  0  0  0  0  0  0  0
   -5.4655    3.5672   -2.1565 C   0  0  0  0  0  0  0  0  0  0  0  0
   -5.6192    4.9249   -1.9197 C   0  0  0  0  0  0  0  0  0  0  0  0
   -4.5193    5.6502   -1.5506 C   0  0  0  0  0  0  0  0  0  0  0  0
   -4.6600    6.8204   -0.7991 O   0  0  0  0  0  0  0  0  0  0  0  0
   -5.7562    7.6743   -0.8808 C   0  0  0  0  0  0  0  0  0  0  0  0
   -3.2925    5.0022   -1.5228 C   0  0  0  0  0  0  0  0  0  0  0  0
   -3.2178    3.6150   -1.4979 C   0  0  0  0  0  0  0  0  0  0  0  0
   -2.1952    2.9876   -0.8921 N   0  0  0  0  0  0  0  0  0  0  0  0
   -2.3702    1.7946   -0.2700 C   0  0  0  0  0  0  0  0  0  0  0  0
   -1.4251    1.4804    0.5878 O   0  0  0  0  0  0  0  0  0  0  0  0
    4.7383    0.6926   -1.6062 C   0  0  0  0  0  0  0  0  0  0  0  0
    4.5593    1.3259   -2.8524 O   0  0  0  0  0  0  0  0  0  0  0  0
    5.6139    1.2219   -0.8197 N   0  0  0  0  0  0  0  0  0  0  0  0
    6.8754    2.2494   -1.3361 S   0  0  0  0  0  0  0  0  0  0  0  0
    8.0518    1.3663   -1.6845 O   0  0  0  0  0  0  0  0  0  0  0  0
    6.4960    3.0369   -2.5413 O   0  0  0  0  0  0  0  0  0  0  0  0
    7.3778    3.2965   -0.0117 C   0  0  0  0  0  0  0  0  0  0  0  0
    6.4360    4.2052    0.6813 C   0  0  0  0  0  0  0  0  0  0  0  0
    6.9771    3.0083    1.3784 C   0  0  0  0  0  0  0  0  0  0  0  0
  1  2  2  0
  3  2  1  6
  3  4  1  0
  4  5  1  0
  5  6  1  1
  6  7  1  0
  7  8  2  0
  9  7  1  1
  9 10  1  0
 11 10  1  1
 11 12  1  0
 12 13  1  0
 13 14  1  0
 14 15  2  0
 14 16  1  0
 16 17  1  6
 17 18  1  0
 17 19  1  0
 17 20  1  0
 16 21  1  0
 21 22  1  0
 22 23  2  0
 22 24  1  0
 25 24  1  6
 25 26  1  0
 27 26  1  1
 27 28  1  0
 28 29  1  0
 29 30  1  0
 30 31  1  0
 31 32  1  0
 32 33  1  0
 33 34  2  0
 34 35  1  0
 35 36  2  0
 36 37  1  0
 37 38  2  0
 38 39  1  0
 39 40  1  0
 38 41  1  0
 41 42  2  0
 42 43  1  0
 43 44  2  0
 44 45  1  0
  5 46  1  0
 46 47  1  0
 46 48  2  0
 48 49  1  0
 49 50  2  0
 49 51  2  0
 49 52  1  0
 52 53  1  0
 53 54  1  0
  5  3  1  0
 13  9  1  0
 27 25  1  0
 44 33  1  0
 54 52  1  0
 45 11  1  0
 42 35  1  0
M  END
>  <zinc_id>  (394) 
ZINC000095551509

>  <smiles>  (394) 
C=C[C@@H]1C[C@]1(NC(=O)[C@@H]1C[C@@H]2CN1C(=O)[C@H](C(C)(C)C)NC(=O)O[C@@H]1C[C@H]1CCCCCc1nc3ccc(OC)cc3nc1O2)/C(O)=N/S(=O)(=O)C1CC1

$$$$

     RDKit          3D

 11 11  0  0  0  0  0  0  0  0999 V2000
   -2.6874    1.3363    0.7170 C   0  0  0  0  0  0  0  0  0  0  0  0
   -1.9222   -0.1176    0.8738 C   0  0  1  0  0  0  0  0  0  0  0  0
   -3.3002   -0.8946    0.8661 N   0  0  0  0  0  0  0  0  0  0  0  0
   -1.7478   -0.2700   -0.7612 C   0  0  0  0  0  0  0  0  0  0  0  0
   -0.2692   -0.1175   -0.9664 C   0  0  0  0  0  0  0  0  0  0  0  0
    0.3743    1.0989   -0.7817 C   0  0  0  0  0  0  0  0  0  0  0  0
    1.6594    1.1934   -0.2623 C   0  0  0  0  0  0  0  0  0  0  0  0
    2.1667    0.0593    0.3592 C   0  0  0  0  0  0  0  0  0  0  0  0
    3.3064    0.0497    1.1237 O   0  0  0  0  0  0  0  0  0  0  0  0
    1.8438   -1.1202   -0.3032 C   0  0  0  0  0  0  0  0  0  0  0  0
    0.5762   -1.2177   -0.8649 C   0  0  0  0  0  0  0  0  0  0  0  0
  2  1  1  6
  2  3  1  0
  2  4  1  0
  4  5  1  0
  5  6  2  0
  6  7  1  0
  7  8  2  0
  8  9  1  0
  8 10  1  0
 10 11  2  0
 11  5  1  0
M  END
>  <zinc_id>  (395) 
ZINC000000000373

>  <smiles>  (395) 
C[C@@H](N)Cc1ccc(O)cc1

$$$$

     RDKit          3D

 10  9  0  0  0  0  0  0  0  0999 V2000
   -2.8905   -0.1400    1.2534 C   0  0  0  0  0  0  0  0  0  0  0  0
   -1.8348    0.7259    0.4263 C   0  0  2  0  0  0  0  0  0  0  0  0
   -2.9934    0.9439   -1.0841 S   0  0  0  0  0  0  0  0  0  0  0  0
   -1.0438   -0.4623   -0.2120 C   0  0  0  0  0  0  0  0  0  0  0  0
   -1.0396   -1.5854    0.3037 O   0  0  0  0  0  0  0  0  0  0  0  0
    0.2128   -0.0206   -0.7451 N   0  0  0  0  0  0  0  0  0  0  0  0
    1.4426   -0.7848   -0.5580 C   0  0  0  0  0  0  0  0  0  0  0  0
    2.5374    0.1307   -0.1132 C   0  0  0  0  0  0  0  0  0  0  0  0
    2.4318    1.3666   -0.3627 O   0  0  0  0  0  0  0  0  0  0  0  0
    3.1774   -0.1740    1.0918 O   0  0  0  0  0  0  0  0  0  0  0  0
  2  1  1  1
  2  3  1  0
  2  4  1  0
  4  5  2  0
  4  6  1  0
  6  7  1  0
  7  8  1  0
  8  9  2  0
  8 10  1  0
M  END
>  <zinc_id>  (396) 
ZINC000000155905

>  <smiles>  (396) 
C[C@H](S)C(=O)NCC(=O)O

$$$$

     RDKit          3D

 23 26  0  0  0  0  0  0  0  0999 V2000
   -4.4853    2.1165    0.3458 C   0  0  0  0  0  0  0  0  0  0  0  0
   -3.9774    1.0187    0.3751 C   0  0  0  0  0  0  0  0  0  0  0  0
   -3.2653   -0.2685    0.3990 C   0  0  2  0  0  0  0  0  0  0  0  0
   -3.9669   -1.1798   -0.3475 O   0  0  0  0  0  0  0  0  0  0  0  0
   -3.1894   -0.6076    1.8853 C   0  0  0  0  0  0  0  0  0  0  0  0
   -1.7348   -0.2663    2.2390 C   0  0  0  0  0  0  0  0  0  0  0  0
   -1.2565   -1.1810    0.9753 C   0  0  2  0  0  0  0  0  0  0  0  0
    0.3982   -0.8323    1.0077 C   0  0  2  0  0  0  0  0  0  0  0  0
    0.3998    0.6403    1.6536 C   0  0  0  0  0  0  0  0  0  0  0  0
    1.7043    1.1869    1.0678 C   0  0  0  0  0  0  0  0  0  0  0  0
    2.6019    0.1384    0.5679 C   0  0  0  0  0  0  0  0  0  0  0  0
    3.9286    0.2261    0.6089 C   0  0  0  0  0  0  0  0  0  0  0  0
    4.6754   -0.2063   -0.5762 C   0  0  0  0  0  0  0  0  0  0  0  0
    5.6805   -0.9527   -0.5295 O   0  0  0  0  0  0  0  0  0  0  0  0
    4.0479    0.1649   -1.8718 C   0  0  0  0  0  0  0  0  0  0  0  0
    2.5405    0.2416   -1.7696 C   0  0  0  0  0  0  0  0  0  0  0  0
    2.1157   -0.8184   -0.6131 C   0  0  2  0  0  0  0  0  0  0  0  0
    0.5417   -0.2245   -0.5487 C   0  0  1  0  0  0  0  0  0  0  0  0
   -0.1908   -1.4805   -1.2363 C   0  0  0  0  0  0  0  0  0  0  0  0
   -1.5704   -0.8133   -1.3825 C   0  0  0  0  0  0  0  0  0  0  0  0
   -1.8174   -0.1092   -0.0767 C   0  0  1  0  0  0  0  0  0  0  0  0
   -1.5171    1.2607    0.0886 C   0  0  0  0  0  0  0  0  0  0  0  0
   -1.6632    1.9463   -1.2705 C   0  0  0  0  0  0  0  0  0  0  0  0
  1  2  3  0
  3  2  1  1
  3  4  1  0
  3  5  1  0
  5  6  1  0
  7  6  1  1
  7  8  1  0
  8  9  1  1
  9 10  1  0
 10 11  1  0
 11 12  2  0
 12 13  1  0
 13 14  2  0
 13 15  1  0
 15 16  1  0
 17 16  1  6
 17 18  1  0
 18 19  1  6
 19 20  1  0
 20 21  1  0
 21 22  1  6
 22 23  1  0
 21  3  1  0
 21  7  1  0
 18  8  1  0
 17 11  1  0
M  END
>  <zinc_id>  (397) 
ZINC000000968375

>  <smiles>  (397) 
C#C[C@]1(O)CC[C@@H]2[C@@H]3CCC4=CC(=O)CC[C@@H]4[C@H]3CC[C@]21CC

$$$$

     RDKit          3D

 33 35  0  0  0  0  0  0  0  0999 V2000
    6.2916    3.0113    1.4241 C   0  0  0  0  0  0  0  0  0  0  0  0
    5.9950    2.2882    1.3415 N   0  0  0  0  0  0  0  0  0  0  0  0
    4.5825    1.7859    1.7798 C   0  0  2  0  0  0  0  0  0  0  0  0
    5.2335    1.0229    3.0686 C   0  0  0  0  0  0  0  0  0  0  0  0
    4.5716    0.3037    0.9101 C   0  0  2  0  0  0  0  0  0  0  0  0
    5.1215    1.0044   -0.4619 C   0  0  0  0  0  0  0  0  0  0  0  0
    4.3660    2.2077   -0.7463 C   0  0  0  0  0  0  0  0  0  0  0  0
    2.9832    1.7115   -1.4276 C   0  0  2  0  0  0  0  0  0  0  0  0
    2.1458    2.2473   -0.2290 N   0  0  0  0  0  0  0  0  0  0  0  0
    3.1894    0.0666   -0.8787 C   0  0  2  0  0  0  0  0  0  0  0  0
    1.7838   -0.1971   -1.2436 O   0  0  0  0  0  0  0  0  0  0  0  0
    0.8914   -0.7981   -0.2590 C   0  0  2  0  0  0  0  0  0  0  0  0
    1.3345   -2.4553   -0.4652 C   0  0  2  0  0  0  0  0  0  0  0  0
    1.3738   -2.4982   -2.0282 N   0  0  0  0  0  0  0  0  0  0  0  0
   -0.0581   -3.1704   -0.2665 C   0  0  0  0  0  0  0  0  0  0  0  0
   -1.4039   -2.9253   -1.0574 C   0  0  2  0  0  0  0  0  0  0  0  0
   -0.9317   -2.6380   -2.5165 N   0  0  0  0  0  0  0  0  0  0  0  0
   -1.5054   -1.2900   -0.4933 C   0  0  2  0  0  0  0  0  0  0  0  0
   -2.4350   -0.7156   -1.3899 O   0  0  0  0  0  0  0  0  0  0  0  0
   -3.8538   -0.4388   -1.3903 C   0  0  2  0  0  0  0  0  0  0  0  0
   -3.8873    0.9739   -0.7717 O   0  0  0  0  0  0  0  0  0  0  0  0
   -5.0463    1.0441   -0.0082 C   0  0  0  0  0  0  0  0  0  0  0  0
   -4.9679    0.5021    1.4046 C   0  0  2  0  0  0  0  0  0  0  0  0
   -6.1557   -0.4565    1.5983 C   0  0  0  0  0  0  0  0  0  0  0  0
   -4.9014    1.2839    2.4762 O   0  0  0  0  0  0  0  0  0  0  0  0
   -3.6598   -0.5072    1.3422 C   0  0  2  0  0  0  0  0  0  0  0  0
   -2.7801    0.6352    0.7964 N   0  0  0  0  0  0  0  0  0  0  0  0
   -2.4903    1.4396    1.9558 C   0  0  0  0  0  0  0  0  0  0  0  0
   -4.4886   -1.1682    0.0223 C   0  0  2  0  0  0  0  0  0  0  0  0
   -3.7116   -2.4416   -0.0253 O   0  0  0  0  0  0  0  0  0  0  0  0
   -0.2227   -0.8472   -1.5458 C   0  0  1  0  0  0  0  0  0  0  0  0
   -0.4489    0.6233   -1.5226 O   0  0  0  0  0  0  0  0  0  0  0  0
    3.0849    0.3960    0.6070 O   0  0  0  0  0  0  0  0  0  0  0  0
  1  2  1  0
  3  2  1  6
  3  4  1  0
  3  5  1  0
  5  6  1  6
  6  7  1  0
  7  8  1  0
  8  9  1  1
  8 10  1  0
 10 11  1  6
 12 11  1  6
 12 13  1  0
 13 14  1  6
 13 15  1  0
 15 16  1  0
 16 17  1  6
 16 18  1  0
 18 19  1  6
 20 19  1  1
 20 21  1  0
 21 22  1  0
 22 23  1  0
 23 24  1  1
 23 25  1  0
 23 26  1  0
 26 27  1  6
 27 28  1  0
 26 29  1  0
 29 30  1  6
 18 31  1  0
 31 32  1  1
 10 33  1  0
 33  5  1  0
 31 12  1  0
 29 20  1  0
M  END
>  <zinc_id>  (398) 
ZINC000242437512

>  <smiles>  (398) 
CN[C@H](C)[C@@H]1CC[C@H](N)[C@H](O[C@H]2[C@H](O)[C@@H](O[C@@H]3OC[C@](C)(O)[C@H](NC)[C@@H]3O)[C@@H](N)C[C@H]2N)O1

$$$$

     RDKit          3D

  7  6  0  0  0  0  0  0  0  0999 V2000
   -0.9814    0.4789    1.7362 F   0  0  0  0  0  0  0  0  0  0  0  0
   -0.1228    0.0787   -0.2205 S   0  0  0  0  0  0  0  0  0  0  0  0
   -1.3184   -1.5134    0.3295 F   0  0  0  0  0  0  0  0  0  0  0  0
    1.3649   -1.4636   -0.4150 F   0  0  0  0  0  0  0  0  0  0  0  0
   -0.5210   -0.0257   -1.9216 F   0  0  0  0  0  0  0  0  0  0  0  0
    1.7385    0.5091    0.9959 F   0  0  0  0  0  0  0  0  0  0  0  0
   -0.1597    1.9360   -0.5044 F   0  0  0  0  0  0  0  0  0  0  0  0
  1  2  1  0
  2  3  1  0
  2  4  1  0
  2  5  1  0
  2  6  1  0
  2  7  1  0
M  END
>  <zinc_id>  (399) 
ZINC000245224194

>  <smiles>  (399) 
FS(F)(F)(F)(F)F

$$$$

     RDKit          3D

 34 34  0  0  0  0  0  0  0  0999 V2000
   -0.4868    3.9035   -1.5837 C   0  0  0  0  0  0  0  0  0  0  0  0
   -0.4938    3.5625   -1.5282 C   0  0  0  0  0  0  0  0  0  0  0  0
    0.1620    3.9042   -2.4603 O   0  0  0  0  0  0  0  0  0  0  0  0
   -0.5536    2.8287   -0.3772 N   0  0  0  0  0  0  0  0  0  0  0  0
   -0.4213    3.6739    0.8197 C   0  0  0  0  0  0  0  0  0  0  0  0
   -1.9221    3.8027    1.4833 C   0  0  1  0  0  0  0  0  0  0  0  0
   -1.3204    4.1950    2.8290 O   0  0  0  0  0  0  0  0  0  0  0  0
   -2.0922    5.3860    1.0335 C   0  0  0  0  0  0  0  0  0  0  0  0
   -3.4307    5.6699    1.3606 O   0  0  0  0  0  0  0  0  0  0  0  0
   -0.1606    1.4474   -0.3179 C   0  0  0  0  0  0  0  0  0  0  0  0
    1.0594    1.0137    0.1529 C   0  0  0  0  0  0  0  0  0  0  0  0
    2.3872    2.4300    0.9672 I   0  0  0  0  0  0  0  0  0  0  0  0
    1.4818   -0.3057    0.1137 C   0  0  0  0  0  0  0  0  0  0  0  0
    2.8926   -0.6506   -0.0426 C   0  0  0  0  0  0  0  0  0  0  0  0
    3.4227   -0.5296   -1.1891 O   0  0  0  0  0  0  0  0  0  0  0  0
    3.5951   -1.5052    0.8553 N   0  0  0  0  0  0  0  0  0  0  0  0
    4.9829   -1.8928    0.5983 C   0  0  0  0  0  0  0  0  0  0  0  0
    5.0329   -2.0191   -1.0480 C   0  0  2  0  0  0  0  0  0  0  0  0
    5.1453   -3.5345   -0.9839 O   0  0  0  0  0  0  0  0  0  0  0  0
    6.6737   -1.8377   -1.0718 C   0  0  0  0  0  0  0  0  0  0  0  0
    6.8277   -0.4919   -1.3390 O   0  0  0  0  0  0  0  0  0  0  0  0
    0.5299   -1.2522   -0.1382 C   0  0  0  0  0  0  0  0  0  0  0  0
    1.0190   -3.2891   -0.3631 I   0  0  0  0  0  0  0  0  0  0  0  0
   -0.7879   -0.8717   -0.3735 C   0  0  0  0  0  0  0  0  0  0  0  0
   -1.8651   -1.8362   -0.5038 C   0  0  0  0  0  0  0  0  0  0  0  0
   -2.4751   -1.8935   -1.5896 O   0  0  0  0  0  0  0  0  0  0  0  0
   -2.2506   -2.7333    0.5332 N   0  0  0  0  0  0  0  0  0  0  0  0
   -2.8734   -3.9973    0.2549 C   0  0  0  0  0  0  0  0  0  0  0  0
   -4.1556   -3.9659    1.2948 C   0  0  2  0  0  0  0  0  0  0  0  0
   -4.9027   -5.0173    0.4910 O   0  0  0  0  0  0  0  0  0  0  0  0
   -4.8788   -2.7286    0.4754 C   0  0  0  0  0  0  0  0  0  0  0  0
   -6.2087   -2.9589    0.8161 O   0  0  0  0  0  0  0  0  0  0  0  0
   -1.0786    0.4583   -0.6565 C   0  0  0  0  0  0  0  0  0  0  0  0
   -2.8543    1.0354   -1.6274 I   0  0  0  0  0  0  0  0  0  0  0  0
  1  2  1  0
  2  3  2  0
  2  4  1  0
  4  5  1  0
  6  5  1  6
  6  7  1  0
  6  8  1  0
  8  9  1  0
  4 10  1  0
 10 11  2  0
 11 12  1  0
 11 13  1  0
 13 14  1  0
 14 15  2  0
 14 16  1  0
 16 17  1  0
 18 17  1  1
 18 19  1  0
 18 20  1  0
 20 21  1  0
 13 22  2  0
 22 23  1  0
 22 24  1  0
 24 25  1  0
 25 26  2  0
 25 27  1  0
 27 28  1  0
 29 28  1  6
 29 30  1  0
 29 31  1  0
 31 32  1  0
 24 33  2  0
 33 34  1  0
 33 10  1  0
M  END
>  <zinc_id>  (400) 
ZINC000003830944

>  <smiles>  (400) 
CC(=O)N(C[C@@H](O)CO)c1c(I)c(C(=O)NC[C@H](O)CO)c(I)c(C(=O)NC[C@H](O)CO)c1I

$$$$

     RDKit          3D

 35 36  0  0  0  0  0  0  0  0999 V2000
    3.6860    6.4286    1.1039 C   0  0  0  0  0  0  0  0  0  0  0  0
    4.7577    5.3855    0.8288 C   0  0  0  0  0  0  0  0  0  0  0  0
    4.9239    5.3865   -0.6883 C   0  0  0  0  0  0  0  0  0  0  0  0
    4.1510    4.1549    1.2293 O   0  0  0  0  0  0  0  0  0  0  0  0
    3.6537    3.2338    0.3354 C   0  0  0  0  0  0  0  0  0  0  0  0
    4.1986    3.1815   -0.7911 O   0  0  0  0  0  0  0  0  0  0  0  0
    2.4328    2.5880    0.4566 O   0  0  0  0  0  0  0  0  0  0  0  0
    1.4906    2.5080   -0.6125 C   0  0  0  0  0  0  0  0  0  0  0  0
    1.5813    1.2967   -1.2637 O   0  0  0  0  0  0  0  0  0  0  0  0
    1.2251    0.1026   -0.1026 P   0  0  0  0  0  0  0  0  0  0  0  0
    2.0223    0.3159    1.1566 O   0  0  0  0  0  0  0  0  0  0  0  0
   -0.5135    0.0620    0.2069 C   0  0  0  0  0  0  0  0  0  0  0  0
   -0.8053    0.8308    1.3035 O   0  0  0  0  0  0  0  0  0  0  0  0
   -2.2947    0.5469    1.6064 C   0  0  2  0  0  0  0  0  0  0  0  0
   -2.0964   -1.1126    1.4096 C   0  0  0  0  0  0  0  0  0  0  0  0
   -2.7196    0.7378   -0.0098 C   0  0  0  0  0  0  0  0  0  0  0  0
   -4.1523    0.7343    0.0288 N   0  0  0  0  0  0  0  0  0  0  0  0
   -4.9188    1.7818   -0.3439 C   0  0  0  0  0  0  0  0  0  0  0  0
   -6.2123    1.3791   -0.3208 N   0  0  0  0  0  0  0  0  0  0  0  0
   -6.2056    0.0672    0.0189 C   0  0  0  0  0  0  0  0  0  0  0  0
   -4.8951   -0.3790   -0.0990 C   0  0  0  0  0  0  0  0  0  0  0  0
   -4.6753   -1.6488   -0.5183 N   0  0  0  0  0  0  0  0  0  0  0  0
   -5.5680   -2.5996   -0.1951 C   0  0  0  0  0  0  0  0  0  0  0  0
   -6.7926   -2.1843    0.2085 N   0  0  0  0  0  0  0  0  0  0  0  0
   -7.1771   -0.9013    0.1927 C   0  0  0  0  0  0  0  0  0  0  0  0
   -8.5459   -0.4960    0.0758 N   0  0  0  0  0  0  0  0  0  0  0  0
    1.8120   -1.3355   -0.8019 O   0  0  0  0  0  0  0  0  0  0  0  0
    3.0666   -0.9814   -1.3284 C   0  0  0  0  0  0  0  0  0  0  0  0
    4.0080   -1.7702   -0.6182 O   0  0  0  0  0  0  0  0  0  0  0  0
    3.6359   -3.0364   -0.1681 C   0  0  0  0  0  0  0  0  0  0  0  0
    2.4957   -3.1779    0.3064 O   0  0  0  0  0  0  0  0  0  0  0  0
    4.4203   -4.1715   -0.4050 O   0  0  0  0  0  0  0  0  0  0  0  0
    4.5008   -5.0986    0.6483 C   0  0  0  0  0  0  0  0  0  0  0  0
    3.5641   -6.2401    0.4207 C   0  0  0  0  0  0  0  0  0  0  0  0
    5.9456   -5.5886    0.6676 C   0  0  0  0  0  0  0  0  0  0  0  0
  1  2  1  0
  2  3  1  0
  2  4  1  0
  4  5  1  0
  5  6  2  0
  5  7  1  0
  7  8  1  0
  8  9  1  0
  9 10  1  0
 10 11  2  0
 10 12  1  0
 12 13  1  0
 14 13  1  6
 14 15  1  0
 14 16  1  0
 16 17  1  0
 17 18  1  0
 18 19  2  0
 19 20  1  0
 20 21  2  0
 21 22  1  0
 22 23  2  0
 23 24  1  0
 24 25  2  0
 25 26  1  0
 10 27  1  0
 27 28  1  0
 28 29  1  0
 29 30  1  0
 30 31  2  0
 30 32  1  0
 32 33  1  0
 33 34  1  0
 33 35  1  0
 21 17  1  0
 25 20  1  0
M  END
>  <zinc_id>  (401) 
ZINC000003929022

>  <smiles>  (401) 
CC(C)OC(=O)OCOP(=O)(CO[C@H](C)Cn1cnc2c(N)ncnc21)OCOC(=O)OC(C)C

$$$$

     RDKit          3D

 27 29  0  0  0  0  0  0  0  0999 V2000
   -5.8669   -2.1298    1.2644 C   0  0  0  0  0  0  0  0  0  0  0  0
   -5.9638   -1.6649    1.0449 C   0  0  0  0  0  0  0  0  0  0  0  0
   -5.4646   -0.5026    0.5966 C   0  0  0  0  0  0  0  0  0  0  0  0
   -4.0018   -0.5628    0.5310 C   0  0  0  0  0  0  0  0  0  0  0  0
   -3.4504    0.3916   -0.2238 C   0  0  0  0  0  0  0  0  0  0  0  0
   -4.1984    1.6341   -0.4785 C   0  0  0  0  0  0  0  0  0  0  0  0
   -5.2652    1.9192    0.1002 O   0  0  0  0  0  0  0  0  0  0  0  0
   -3.8806    2.3913   -1.5998 O   0  0  0  0  0  0  0  0  0  0  0  0
   -2.2316    0.1694   -0.9055 N   0  0  0  0  0  0  0  0  0  0  0  0
   -1.1494    0.8175   -1.4894 C   0  0  0  0  0  0  0  0  0  0  0  0
   -0.7909    1.8931   -1.9607 O   0  0  0  0  0  0  0  0  0  0  0  0
   -0.2340   -0.4934   -1.4080 C   0  0  1  0  0  0  0  0  0  0  0  0
    0.4511   -0.0446   -0.0600 N   0  0  0  0  0  0  0  0  0  0  0  0
    1.8448    0.1550   -0.3058 C   0  0  0  0  0  0  0  0  0  0  0  0
    2.4369   -0.1098   -1.3498 O   0  0  0  0  0  0  0  0  0  0  0  0
    2.5838    1.1083    0.7683 C   0  0  2  0  0  0  0  0  0  0  0  0
    2.9712    2.1805   -0.3281 N   0  0  0  0  0  0  0  0  0  0  0  0
    4.0026    0.3482    0.6102 C   0  0  0  0  0  0  0  0  0  0  0  0
    3.9818   -0.9917    0.8686 C   0  0  0  0  0  0  0  0  0  0  0  0
    5.1667   -1.7013    0.7297 C   0  0  0  0  0  0  0  0  0  0  0  0
    6.3449   -0.9659    0.7192 C   0  0  0  0  0  0  0  0  0  0  0  0
    7.5166   -1.7024    0.6946 O   0  0  0  0  0  0  0  0  0  0  0  0
    6.3213    0.4132    0.8872 C   0  0  0  0  0  0  0  0  0  0  0  0
    5.1126    1.1011    0.8671 C   0  0  0  0  0  0  0  0  0  0  0  0
   -1.6282   -1.2180   -0.8240 C   0  0  1  0  0  0  0  0  0  0  0  0
   -1.4416   -1.2165    1.0680 S   0  0  0  0  0  0  0  0  0  0  0  0
   -3.1669   -1.2187    1.5752 C   0  0  0  0  0  0  0  0  0  0  0  0
  1  2  1  0
  2  3  2  0
  3  4  1  0
  4  5  2  0
  5  6  1  0
  6  7  2  0
  6  8  1  0
  5  9  1  0
  9 10  1  0
 10 11  2  0
 10 12  1  0
 12 13  1  1
 13 14  1  0
 14 15  2  0
 16 14  1  6
 16 17  1  0
 16 18  1  0
 18 19  2  0
 19 20  1  0
 20 21  2  0
 21 22  1  0
 21 23  1  0
 23 24  2  0
 12 25  1  0
 25 26  1  1
 26 27  1  0
 27  4  1  0
 25  9  1  0
 24 18  1  0
M  END
>  <zinc_id>  (402) 
ZINC000004474443

>  <smiles>  (402) 
C/C=C\C1=C(C(=O)O)N2C(=O)[C@@H](NC(=O)[C@H](N)c3ccc(O)cc3)[C@H]2SC1

$$$$

     RDKit          3D

 27 27  0  0  0  0  0  0  0  0999 V2000
    4.7189    4.3660    0.4352 C   0  0  0  0  0  0  0  0  0  0  0  0
    4.9374    3.8634    0.1340 C   0  0  0  0  0  0  0  0  0  0  0  0
    5.1720    2.4243   -0.2607 C   0  0  0  0  0  0  0  0  0  0  0  0
    6.2605    1.7710    0.5559 C   0  0  0  0  0  0  0  0  0  0  0  0
    6.5039    0.4095   -0.0813 C   0  0  0  0  0  0  0  0  0  0  0  0
    5.3233   -0.4608    0.3013 C   0  0  0  0  0  0  0  0  0  0  0  0
    4.3412   -0.5901   -0.8262 C   0  0  0  0  0  0  0  0  0  0  0  0
    2.9909   -0.7776   -0.2649 C   0  0  0  0  0  0  0  0  0  0  0  0
    2.6119   -0.0177    0.6134 O   0  0  0  0  0  0  0  0  0  0  0  0
    1.9711   -1.6698   -0.8659 C   0  0  0  0  0  0  0  0  0  0  0  0
    1.1279   -2.2918    0.2160 C   0  0  0  0  0  0  0  0  0  0  0  0
   -0.3265   -1.5777    0.1233 C   0  0  1  0  0  0  0  0  0  0  0  0
   -0.5211   -2.0508   -1.5188 C   0  0  2  0  0  0  0  0  0  0  0  0
   -0.6819   -0.5831   -1.9602 O   0  0  0  0  0  0  0  0  0  0  0  0
   -2.1723   -2.2124   -1.2858 C   0  0  0  0  0  0  0  0  0  0  0  0
   -1.4887   -3.6400   -0.7436 C   0  0  2  0  0  0  0  0  0  0  0  0
   -2.8381   -4.1719   -0.2227 O   0  0  0  0  0  0  0  0  0  0  0  0
   -1.0973   -2.9211    0.7756 C   0  0  2  0  0  0  0  0  0  0  0  0
   -2.4961   -2.1122    0.9624 C   0  0  0  0  0  0  0  0  0  0  0  0
   -2.1146   -0.9733    1.8323 C   0  0  0  0  0  0  0  0  0  0  0  0
   -3.0083   -0.0201    2.0515 C   0  0  0  0  0  0  0  0  0  0  0  0
   -4.1150    0.2675    1.0929 C   0  0  0  0  0  0  0  0  0  0  0  0
   -3.6904    1.1637   -0.0357 C   0  0  0  0  0  0  0  0  0  0  0  0
   -4.0057    2.6136    0.1984 C   0  0  0  0  0  0  0  0  0  0  0  0
   -5.3687    2.9145   -0.3309 C   0  0  0  0  0  0  0  0  0  0  0  0
   -6.2413    2.0361   -0.4859 O   0  0  0  0  0  0  0  0  0  0  0  0
   -5.7931    4.2409   -0.3814 O   0  0  0  0  0  0  0  0  0  0  0  0
  1  2  1  0
  2  3  1  0
  3  4  1  0
  4  5  1  0
  5  6  1  0
  6  7  1  0
  7  8  1  0
  8  9  2  0
  8 10  1  0
 10 11  1  0
 12 11  1  1
 12 13  1  0
 13 14  1  6
 13 15  1  0
 15 16  1  0
 16 17  1  1
 16 18  1  0
 18 19  1  6
 19 20  1  0
 20 21  2  0
 21 22  1  0
 22 23  1  0
 23 24  1  0
 24 25  1  0
 25 26  2  0
 25 27  1  0
 18 12  1  0
M  END
>  <zinc_id>  (403) 
ZINC000008214703

>  <smiles>  (403) 
CCCCCCCC(=O)CC[C@H]1[C@H](O)C[C@H](O)[C@@H]1C/C=C\CCCC(=O)O

$$$$

     RDKit          3D

 10 10  0  0  0  0  0  0  0  0999 V2000
   -0.8388    2.3543    0.2233 C   0  0  0  0  0  0  0  0  0  0  0  0
   -0.9966    0.9291   -0.0404 N   0  0  0  0  0  0  0  0  0  0  0  0
   -2.0110    0.2199    0.6820 C   0  0  0  0  0  0  0  0  0  0  0  0
   -2.1540   -1.0884    0.4639 C   0  0  0  0  0  0  0  0  0  0  0  0
   -1.1016   -1.8218   -0.2435 C   0  0  0  0  0  0  0  0  0  0  0  0
    0.0072   -1.2380   -0.6738 C   0  0  0  0  0  0  0  0  0  0  0  0
    0.1548    0.2022   -0.4635 C   0  0  0  0  0  0  0  0  0  0  0  0
    1.3738    0.7119   -0.4726 C   0  0  0  0  0  0  0  0  0  0  0  0
    2.5585   -0.0774   -0.3210 N   0  0  0  0  0  0  0  0  0  0  0  0
    3.0077   -0.1919    0.8456 O   0  0  0  0  0  0  0  0  0  0  0  0
  1  2  1  0
  2  3  1  0
  3  4  2  0
  4  5  1  0
  5  6  2  0
  6  7  1  0
  7  8  2  0
  8  9  1  0
  9 10  2  0
  7  2  1  0
M  END
>  <zinc_id>  (404) 
ZINC000012503156

>  <smiles>  (404) 
CN1C=CC=C/C1=C\N=O

$$$$

     RDKit          3D

 27 30  0  0  0  0  0  0  0  0999 V2000
    1.7606   -1.2065    2.4925 N   0  0  0  0  0  0  0  0  0  0  0  0
    2.3070   -0.8026    1.5508 C   0  0  0  0  0  0  0  0  0  0  0  0
    3.1349   -0.4337    0.4257 C   0  0  0  0  0  0  0  0  0  0  0  0
    4.4479   -0.0295    0.5782 C   0  0  0  0  0  0  0  0  0  0  0  0
    5.0966    0.5680   -0.4891 C   0  0  0  0  0  0  0  0  0  0  0  0
    4.6149    0.2817   -1.7500 C   0  0  0  0  0  0  0  0  0  0  0  0
    3.3379   -0.2427   -1.9059 C   0  0  0  0  0  0  0  0  0  0  0  0
    2.5335   -0.5619   -0.8199 C   0  0  0  0  0  0  0  0  0  0  0  0
    1.0947   -0.2882   -0.9264 C   0  0  0  0  0  0  0  0  0  0  0  0
    0.6770    1.0265   -0.7750 C   0  0  0  0  0  0  0  0  0  0  0  0
   -0.6840    1.2352   -0.6141 C   0  0  0  0  0  0  0  0  0  0  0  0
   -1.2398    2.5812   -0.4922 C   0  0  0  0  0  0  0  0  0  0  0  0
   -2.3045    2.8768    0.3487 C   0  0  0  0  0  0  0  0  0  0  0  0
   -2.3958    4.0909    1.0178 C   0  0  0  0  0  0  0  0  0  0  0  0
   -1.3971    5.0109    0.7318 C   0  0  0  0  0  0  0  0  0  0  0  0
   -0.7532    4.8623   -0.4896 C   0  0  0  0  0  0  0  0  0  0  0  0
   -0.6584    3.6483   -1.0853 N   0  0  0  0  0  0  0  0  0  0  0  0
   -1.3706    0.2194    0.0409 C   0  0  0  0  0  0  0  0  0  0  0  0
   -1.0216   -1.0815   -0.1186 N   0  0  0  0  0  0  0  0  0  0  0  0
   -1.9624   -2.1450    0.0728 C   0  0  0  0  0  0  0  0  0  0  0  0
   -3.3008   -1.7992   -0.0744 C   0  0  0  0  0  0  0  0  0  0  0  0
   -4.2474   -2.8037    0.0343 C   0  0  0  0  0  0  0  0  0  0  0  0
   -3.8677   -4.0394    0.5241 C   0  0  0  0  0  0  0  0  0  0  0  0
   -2.6959   -4.1009    1.2665 C   0  0  0  0  0  0  0  0  0  0  0  0
   -1.7127   -3.1589    0.9903 C   0  0  0  0  0  0  0  0  0  0  0  0
    0.1419   -1.2865   -0.7833 C   0  0  0  0  0  0  0  0  0  0  0  0
    0.4651   -2.4211   -1.1888 O   0  0  0  0  0  0  0  0  0  0  0  0
  1  2  3  0
  2  3  1  0
  3  4  2  0
  4  5  1  0
  5  6  2  0
  6  7  1  0
  7  8  2  0
  8  9  1  0
  9 10  2  0
 10 11  1  0
 11 12  1  0
 12 13  2  0
 13 14  1  0
 14 15  2  0
 15 16  1  0
 16 17  2  0
 11 18  2  0
 18 19  1  0
 19 20  1  0
 20 21  2  0
 21 22  1  0
 22 23  2  0
 23 24  1  0
 24 25  2  0
 19 26  1  0
 26 27  2  0
  8  3  1  0
 26  9  1  0
 17 12  1  0
 25 20  1  0
M  END
>  <zinc_id>  (405) 
ZINC000030691797

>  <smiles>  (405) 
N#Cc1ccccc1-c1cc(-c2ccccn2)cn(-c2ccccc2)c1=O

$$$$

     RDKit          3D

 24 27  0  0  0  0  0  0  0  0999 V2000
    4.3741    1.8265    1.0418 N   0  0  0  0  0  0  0  0  0  0  0  0
    4.3365    1.6897    1.0653 C   0  0  0  0  0  0  0  0  0  0  0  0
    5.2160    1.8569    1.9185 O   0  0  0  0  0  0  0  0  0  0  0  0
    4.1098    0.6790    0.0465 C   0  0  0  0  0  0  0  0  0  0  0  0
    5.0373    0.3394   -0.9366 C   0  0  0  0  0  0  0  0  0  0  0  0
    4.6771   -0.2402   -2.1462 C   0  0  0  0  0  0  0  0  0  0  0  0
    3.3823    0.0084   -2.5865 C   0  0  0  0  0  0  0  0  0  0  0  0
    2.3854    0.2595   -1.6509 C   0  0  0  0  0  0  0  0  0  0  0  0
    1.0222    0.0847   -1.5782 C   0  0  0  0  0  0  0  0  0  0  0  0
    0.6656   -0.1574   -0.2935 N   0  0  0  0  0  0  0  0  0  0  0  0
   -0.4128   -1.0310    0.0622 C   0  0  0  0  0  0  0  0  0  0  0  0
   -1.2122   -1.6397   -0.8981 C   0  0  0  0  0  0  0  0  0  0  0  0
   -2.5719   -1.8310   -0.6582 C   0  0  0  0  0  0  0  0  0  0  0  0
   -3.0676   -1.2406    0.4535 C   0  0  0  0  0  0  0  0  0  0  0  0
   -4.6488   -1.2956    0.7182 C   0  0  2  0  0  0  0  0  0  0  0  0
   -5.0140   -0.7760   -0.7959 C   0  0  0  0  0  0  0  0  0  0  0  0
   -4.1906    0.4910   -0.9995 C   0  0  0  0  0  0  0  0  0  0  0  0
   -5.0569    1.6009   -0.4060 C   0  0  0  0  0  0  0  0  0  0  0  0
   -5.6736    0.9638    0.7602 N   0  0  0  0  0  0  0  0  0  0  0  0
   -4.6518    0.2070    1.3724 C   0  0  0  0  0  0  0  0  0  0  0  0
   -2.2681   -1.3095    1.5892 C   0  0  0  0  0  0  0  0  0  0  0  0
   -0.9080   -1.1108    1.3580 C   0  0  0  0  0  0  0  0  0  0  0  0
    1.6863    0.2027    0.4516 N   0  0  0  0  0  0  0  0  0  0  0  0
    2.7839    0.4225   -0.3243 C   0  0  0  0  0  0  0  0  0  0  0  0
  1  2  1  0
  2  3  2  0
  2  4  1  0
  4  5  2  0
  5  6  1  0
  6  7  2  0
  7  8  1  0
  8  9  2  0
  9 10  1  0
 10 11  1  0
 11 12  2  0
 12 13  1  0
 13 14  2  0
 15 14  1  6
 15 16  1  0
 16 17  1  0
 17 18  1  0
 18 19  1  0
 19 20  1  0
 14 21  1  0
 21 22  2  0
 10 23  1  0
 23 24  2  0
 24  4  1  0
 24  8  1  0
 22 11  1  0
 20 15  1  0
M  END
>  <zinc_id>  (406) 
ZINC000043206370

>  <smiles>  (406) 
NC(=O)c1cccc2cn(-c3ccc([C@@H]4CCCNC4)cc3)nc12

$$$$

     RDKit          3D

 29 33  0  0  0  0  0  0  0  0999 V2000
   -0.6853    0.6018    1.0370 O   0  0  0  0  0  0  0  0  0  0  0  0
   -0.6884    0.6174    0.5180 C   0  0  0  0  0  0  0  0  0  0  0  0
    0.5366    0.3272   -0.0647 O   0  0  0  0  0  0  0  0  0  0  0  0
    1.7874    0.7797    0.7573 C   0  0  1  0  0  0  0  0  0  0  0  0
    2.1977   -0.7611    0.9616 C   0  0  0  0  0  0  0  0  0  0  0  0
    3.7882   -1.0319    0.9112 C   0  0  1  0  0  0  0  0  0  0  0  0
    3.5806   -2.1465   -0.3040 C   0  0  0  0  0  0  0  0  0  0  0  0
    2.4658   -1.3218   -0.9436 C   0  0  0  0  0  0  0  0  0  0  0  0
    3.3687    0.0024   -1.3168 C   0  0  1  0  0  0  0  0  0  0  0  0
    2.4862    1.1829   -0.6472 C   0  0  0  0  0  0  0  0  0  0  0  0
    4.3182   -0.0049   -0.0997 N   0  0  0  0  0  0  0  0  0  0  0  0
    5.4384   -0.7264   -0.7476 C   0  0  0  0  0  0  0  0  0  0  0  0
    6.6888   -0.0469   -0.3156 C   0  0  0  0  0  0  0  0  0  0  0  0
    6.2196    1.2592    0.2661 C   0  0  0  0  0  0  0  0  0  0  0  0
    4.7017    1.1809    0.3658 C   0  0  0  0  0  0  0  0  0  0  0  0
   -1.8591    0.6945   -0.4177 C   0  0  0  0  0  0  0  0  0  0  0  0
   -1.5434    1.3669   -1.5899 O   0  0  0  0  0  0  0  0  0  0  0  0
   -2.2843   -0.6662   -0.8666 C   0  0  0  0  0  0  0  0  0  0  0  0
   -3.6493   -0.9045   -0.9796 C   0  0  0  0  0  0  0  0  0  0  0  0
   -4.0796   -2.2128   -1.1756 C   0  0  0  0  0  0  0  0  0  0  0  0
   -3.3347   -3.1385   -0.4483 C   0  0  0  0  0  0  0  0  0  0  0  0
   -1.9606   -2.9798   -0.6001 C   0  0  0  0  0  0  0  0  0  0  0  0
   -1.4429   -1.7446   -0.9791 C   0  0  0  0  0  0  0  0  0  0  0  0
   -3.0096    1.3596    0.2663 C   0  0  0  0  0  0  0  0  0  0  0  0
   -3.7572    2.3532   -0.3073 C   0  0  0  0  0  0  0  0  0  0  0  0
   -5.1406    2.3203   -0.1730 C   0  0  0  0  0  0  0  0  0  0  0  0
   -5.6944    1.8277    0.9834 C   0  0  0  0  0  0  0  0  0  0  0  0
   -4.8866    1.0209    1.7659 C   0  0  0  0  0  0  0  0  0  0  0  0
   -3.5619    0.7913    1.4012 C   0  0  0  0  0  0  0  0  0  0  0  0
  1  2  2  0
  2  3  1  0
  4  3  1  6
  4  5  1  0
  6  5  1  6
  6  7  1  0
  7  8  1  0
  9  8  1  1
  9 10  1  0
  9 11  1  0
 11 12  1  0
 12 13  1  0
 13 14  1  0
 14 15  1  0
  2 16  1  0
 16 17  1  0
 16 18  1  0
 18 19  2  0
 19 20  1  0
 20 21  2  0
 21 22  1  0
 22 23  2  0
 16 24  1  0
 24 25  2  0
 25 26  1  0
 26 27  2  0
 27 28  1  0
 28 29  2  0
 10  4  1  0
 15 11  1  0
 23 18  1  0
 29 24  1  0
 11  6  1  0
M  CHG  1  11   1
M  END
>  <zinc_id>  (407) 
ZINC000100016084

>  <smiles>  (407) 
O=C(O[C@@H]1C[C@@H]2CC[C@H](C1)[N+]21CCCC1)C(O)(c1ccccc1)c1ccccc1

$$$$

     RDKit          3D

  9  8  0  0  0  0  0  0  0  0999 V2000
    2.7190   -0.7982    0.7199 C   0  0  0  0  0  0  0  0  0  0  0  0
    1.4769   -0.4772    0.5405 C   0  0  0  0  0  0  0  0  0  0  0  0
    1.4687    0.8920   -0.3759 C   0  0  2  0  0  0  0  0  0  0  0  0
    1.4846    1.8122    0.9379 N   0  0  0  0  0  0  0  0  0  0  0  0
   -0.2041    0.9329   -0.4142 C   0  0  0  0  0  0  0  0  0  0  0  0
   -0.6074   -0.4530   -0.8073 C   0  0  0  0  0  0  0  0  0  0  0  0
   -1.8332   -0.7878   -0.0157 C   0  0  0  0  0  0  0  0  0  0  0  0
   -1.6356   -1.2706    1.1154 O   0  0  0  0  0  0  0  0  0  0  0  0
   -2.8689    0.1496   -0.1110 O   0  0  0  0  0  0  0  0  0  0  0  0
  1  2  2  0
  3  2  1  1
  3  4  1  0
  3  5  1  0
  5  6  1  0
  6  7  1  0
  7  8  2  0
  7  9  1  0
M  END
>  <zinc_id>  (408) 
ZINC000000403618

>  <smiles>  (408) 
C=C[C@H](N)CCC(=O)O

$$$$

     RDKit          3D

 25 27  0  0  0  0  0  0  0  0999 V2000
    8.0946    1.4772    0.7404 C   0  0  0  0  0  0  0  0  0  0  0  0
    7.5720    1.3715   -0.6862 C   0  0  0  0  0  0  0  0  0  0  0  0
    6.2486    0.8764   -0.6362 O   0  0  0  0  0  0  0  0  0  0  0  0
    6.0032   -0.4202   -0.2413 C   0  0  0  0  0  0  0  0  0  0  0  0
    7.0031   -1.1439    0.0476 O   0  0  0  0  0  0  0  0  0  0  0  0
    4.6368   -0.9158   -0.0454 C   0  0  0  0  0  0  0  0  0  0  0  0
    4.0012   -1.6647   -1.0221 C   0  0  0  0  0  0  0  0  0  0  0  0
    2.6283   -1.6384   -1.0470 C   0  0  0  0  0  0  0  0  0  0  0  0
    1.8662   -1.1628    0.0030 C   0  0  0  0  0  0  0  0  0  0  0  0
    0.4477   -0.9973   -0.2190 C   0  0  0  0  0  0  0  0  0  0  0  0
   -0.6601   -0.5580   -0.4606 C   0  0  0  0  0  0  0  0  0  0  0  0
   -1.9457    0.0909   -0.5727 C   0  0  0  0  0  0  0  0  0  0  0  0
   -2.0605    1.4367   -0.8914 C   0  0  0  0  0  0  0  0  0  0  0  0
   -3.1100    2.1722   -0.3561 C   0  0  0  0  0  0  0  0  0  0  0  0
   -4.1575    1.5313    0.2917 C   0  0  0  0  0  0  0  0  0  0  0  0
   -4.2049    0.1450    0.1874 C   0  0  0  0  0  0  0  0  0  0  0  0
   -3.0062   -0.5396    0.0657 C   0  0  0  0  0  0  0  0  0  0  0  0
   -5.4472   -0.4748    0.7050 C   0  0  0  0  0  0  0  0  0  0  0  0
   -5.7576    0.0475    2.1030 C   0  0  0  0  0  0  0  0  0  0  0  0
   -5.1900   -1.9658    0.8123 C   0  0  0  0  0  0  0  0  0  0  0  0
   -6.6345   -0.2663   -0.1811 C   0  0  0  0  0  0  0  0  0  0  0  0
   -6.9110    1.1662   -0.5196 C   0  0  0  0  0  0  0  0  0  0  0  0
   -5.7676    2.3299    0.2369 S   0  0  0  0  0  0  0  0  0  0  0  0
    2.5141   -0.5783    1.0226 N   0  0  0  0  0  0  0  0  0  0  0  0
    3.8369   -0.3188    0.9188 C   0  0  0  0  0  0  0  0  0  0  0  0
  1  2  1  0
  2  3  1  0
  3  4  1  0
  4  5  2  0
  4  6  1  0
  6  7  2  0
  7  8  1  0
  8  9  2  0
  9 10  1  0
 10 11  3  0
 11 12  1  0
 12 13  2  0
 13 14  1  0
 14 15  2  0
 15 16  1  0
 16 17  2  0
 16 18  1  0
 18 19  1  0
 18 20  1  0
 18 21  1  0
 21 22  1  0
 22 23  1  0
  9 24  1  0
 24 25  2  0
 25  6  1  0
 17 12  1  0
 23 15  1  0
M  END
>  <zinc_id>  (409) 
ZINC000001542199

>  <smiles>  (409) 
CCOC(=O)c1ccc(C#Cc2ccc3c(c2)C(C)(C)CCS3)nc1

$$$$

     RDKit          3D

 19 21  0  0  0  0  0  0  0  0999 V2000
    3.5381    1.9549   -1.6142 N   0  0  0  0  0  0  0  0  0  0  0  0
    3.3087    0.9209   -0.9632 C   0  0  0  0  0  0  0  0  0  0  0  0
    4.3599    0.0472   -0.7105 C   0  0  0  0  0  0  0  0  0  0  0  0
    4.1747   -1.1507   -0.0322 C   0  0  0  0  0  0  0  0  0  0  0  0
    3.1047   -1.2023    0.8301 C   0  0  0  0  0  0  0  0  0  0  0  0
    1.9812   -0.4531    0.4971 C   0  0  0  0  0  0  0  0  0  0  0  0
    2.0913    0.5834   -0.4070 C   0  0  0  0  0  0  0  0  0  0  0  0
    0.7408    1.0290   -0.8466 C   0  0  0  0  0  0  0  0  0  0  0  0
   -0.1981    0.4180    0.0930 N   0  0  0  0  0  0  0  0  0  0  0  0
   -1.5414   -0.2089   -0.5306 C   0  0  2  0  0  0  0  0  0  0  0  0
   -2.2308    1.2989   -0.7700 C   0  0  0  0  0  0  0  0  0  0  0  0
   -3.5324    0.8516   -1.4335 C   0  0  0  0  0  0  0  0  0  0  0  0
   -4.0234   -0.4357   -0.8469 C   0  0  0  0  0  0  0  0  0  0  0  0
   -4.5185   -1.3558   -1.5650 O   0  0  0  0  0  0  0  0  0  0  0  0
   -3.6499   -0.6533    0.5242 N   0  0  0  0  0  0  0  0  0  0  0  0
   -2.2945   -0.3592    0.9251 C   0  0  0  0  0  0  0  0  0  0  0  0
   -2.0379    0.5451    1.7436 O   0  0  0  0  0  0  0  0  0  0  0  0
    0.5760   -0.4909    0.8884 C   0  0  0  0  0  0  0  0  0  0  0  0
    0.1514   -1.3390    1.7262 O   0  0  0  0  0  0  0  0  0  0  0  0
  1  2  1  0
  2  3  2  0
  3  4  1  0
  4  5  2  0
  5  6  1  0
  6  7  2  0
  7  8  1  0
  8  9  1  0
 10  9  1  1
 10 11  1  0
 11 12  1  0
 12 13  1  0
 13 14  2  0
 13 15  1  0
 15 16  1  0
 16 17  2  0
  9 18  1  0
 18 19  2  0
  7  2  1  0
 16 10  1  0
 18  6  1  0
M  END
>  <zinc_id>  (410) 
ZINC000003604264

>  <smiles>  (410) 
Nc1cccc2c1CN([C@@H]1CCC(=O)NC1=O)C2=O

$$$$

     RDKit          3D

 39 43  0  0  0  0  0  0  0  0999 V2000
   -4.1262   -0.8818    1.6178 C   0  0  0  0  0  0  0  0  0  0  0  0
   -3.2688    0.2166    1.0772 C   0  0  0  0  0  0  0  0  0  0  0  0
   -2.2279    0.7629    1.7964 C   0  0  0  0  0  0  0  0  0  0  0  0
   -1.1953    1.4070    1.1255 C   0  0  0  0  0  0  0  0  0  0  0  0
   -1.0382    1.3086   -0.2515 C   0  0  0  0  0  0  0  0  0  0  0  0
    0.3116    1.0914   -0.7910 C   0  0  0  0  0  0  0  0  0  0  0  0
    1.1691    1.9558   -0.4363 O   0  0  0  0  0  0  0  0  0  0  0  0
    0.8045   -0.2518   -0.8542 N   0  0  0  0  0  0  0  0  0  0  0  0
    2.1526   -0.5826   -0.5028 C   0  0  0  0  0  0  0  0  0  0  0  0
    2.9930   -1.0819   -1.4847 C   0  0  0  0  0  0  0  0  0  0  0  0
    4.3567   -0.9955   -1.2340 C   0  0  0  0  0  0  0  0  0  0  0  0
    4.8656   -0.4560   -0.0710 C   0  0  0  0  0  0  0  0  0  0  0  0
    6.1955    0.1897    0.0009 C   0  0  0  0  0  0  0  0  0  0  0  0
    6.8784    0.1755   -1.2812 N   0  0  0  0  0  0  0  0  0  0  0  0
    8.0911    0.9253   -1.1278 C   0  0  0  0  0  0  0  0  0  0  0  0
    9.1606    0.2555   -0.3438 C   0  0  0  0  0  0  0  0  0  0  0  0
    8.8176   -0.9490    0.3139 N   0  0  0  0  0  0  0  0  0  0  0  0
    8.7844   -0.9024    1.7423 C   0  0  0  0  0  0  0  0  0  0  0  0
    7.8239   -1.7622   -0.2993 C   0  0  0  0  0  0  0  0  0  0  0  0
    7.2504   -1.2005   -1.5687 C   0  0  0  0  0  0  0  0  0  0  0  0
    3.9624   -0.1561    0.9399 C   0  0  0  0  0  0  0  0  0  0  0  0
    4.5030    0.3714    2.2303 C   0  0  0  0  0  0  0  0  0  0  0  0
    4.7790   -0.6639    3.0916 F   0  0  0  0  0  0  0  0  0  0  0  0
    5.6747    1.0681    1.9718 F   0  0  0  0  0  0  0  0  0  0  0  0
    3.5384    1.2365    2.7351 F   0  0  0  0  0  0  0  0  0  0  0  0
    2.6286   -0.4914    0.7796 C   0  0  0  0  0  0  0  0  0  0  0  0
   -2.1766    0.9289   -0.9518 C   0  0  0  0  0  0  0  0  0  0  0  0
   -3.2676    0.3622   -0.3045 C   0  0  0  0  0  0  0  0  0  0  0  0
   -4.4622    0.0851   -1.0690 C   0  0  0  0  0  0  0  0  0  0  0  0
   -5.5951   -0.0636   -1.4839 C   0  0  0  0  0  0  0  0  0  0  0  0
   -6.9799   -0.4646   -1.5847 C   0  0  0  0  0  0  0  0  0  0  0  0
   -7.3533   -1.5930   -2.3045 C   0  0  0  0  0  0  0  0  0  0  0  0
   -8.6939   -1.6382   -2.1950 N   0  0  0  0  0  0  0  0  0  0  0  0
   -9.0659   -0.9834   -1.0798 C   0  0  0  0  0  0  0  0  0  0  0  0
  -10.2022   -0.9327   -0.2903 C   0  0  0  0  0  0  0  0  0  0  0  0
  -10.1809   -0.2491    0.9171 C   0  0  0  0  0  0  0  0  0  0  0  0
   -8.9358    0.1428    1.3895 C   0  0  0  0  0  0  0  0  0  0  0  0
   -8.0126    0.4138    0.4383 N   0  0  0  0  0  0  0  0  0  0  0  0
   -7.9586   -0.3265   -0.6575 N   0  0  0  0  0  0  0  0  0  0  0  0
  1  2  1  0
  2  3  2  0
  3  4  1  0
  4  5  2  0
  5  6  1  0
  6  7  2  0
  6  8  1  0
  8  9  1  0
  9 10  2  0
 10 11  1  0
 11 12  2  0
 12 13  1  0
 13 14  1  0
 14 15  1  0
 15 16  1  0
 16 17  1  0
 17 18  1  0
 17 19  1  0
 19 20  1  0
 12 21  1  0
 21 22  1  0
 22 23  1  0
 22 24  1  0
 22 25  1  0
 21 26  2  0
  5 27  1  0
 27 28  2  0
 28 29  1  0
 29 30  3  0
 30 31  1  0
 31 32  2  0
 32 33  1  0
 33 34  2  0
 34 35  1  0
 35 36  2  0
 36 37  1  0
 37 38  2  0
 38 39  1  0
 28  2  1  0
 39 31  1  0
 26  9  1  0
 39 34  1  0
 20 14  1  0
M  END
>  <zinc_id>  (411) 
ZINC000036701290

>  <smiles>  (411) 
Cc1ccc(C(=O)Nc2ccc(CN3CCN(C)CC3)c(C(F)(F)F)c2)cc1C#Cc1cnc2cccnn12

$$$$

     RDKit          3D

 12 12  0  0  0  0  0  0  0  0999 V2000
    0.1039    3.0040   -0.2881 N   0  0  0  0  0  0  0  0  0  0  0  0
   -0.5579    1.7528   -0.6479 C   0  0  0  0  0  0  0  0  0  0  0  0
    0.1678    0.5501   -0.1170 C   0  0  0  0  0  0  0  0  0  0  0  0
   -0.6859   -0.3281    0.7585 C   0  0  0  0  0  0  0  0  0  0  0  0
   -1.9824   -0.6837    0.1489 C   0  0  0  0  0  0  0  0  0  0  0  0
   -2.8640   -1.1323    0.9439 O   0  0  0  0  0  0  0  0  0  0  0  0
   -2.0003   -1.2265   -1.1306 O   0  0  0  0  0  0  0  0  0  0  0  0
    0.8665   -0.2420   -1.2187 C   0  0  0  0  0  0  0  0  0  0  0  0
    1.2087   -1.5886   -0.5929 C   0  0  0  0  0  0  0  0  0  0  0  0
    2.0020   -1.3096    0.6599 C   0  0  0  0  0  0  0  0  0  0  0  0
    2.4531    0.1292    0.7094 C   0  0  0  0  0  0  0  0  0  0  0  0
    1.2885    1.0747    0.7746 C   0  0  0  0  0  0  0  0  0  0  0  0
  1  2  1  0
  2  3  1  0
  3  4  1  0
  4  5  1  0
  5  6  2  0
  5  7  1  0
  3  8  1  0
  8  9  1  0
  9 10  1  0
 10 11  1  0
 11 12  1  0
 12  3  1  0
M  END
>  <zinc_id>  (412) 
ZINC000000004949

>  <smiles>  (412) 
NCC1(CC(=O)O)CCCCC1

$$$$

     RDKit          3D

 18 18  0  0  0  0  0  0  0  0999 V2000
    4.1142    2.2652   -0.0467 C   0  0  0  0  0  0  0  0  0  0  0  0
    4.5817    0.8529    0.1298 C   0  0  0  0  0  0  0  0  0  0  0  0
    3.6974   -0.1230   -0.4579 N   0  0  0  0  0  0  0  0  0  0  0  0
    4.2402   -1.2145   -1.2308 C   0  0  0  0  0  0  0  0  0  0  0  0
    2.2771   -0.0658   -0.2994 C   0  0  0  0  0  0  0  0  0  0  0  0
    1.7974    1.0679   -0.0547 O   0  0  0  0  0  0  0  0  0  0  0  0
    1.6124   -1.1533    0.2417 O   0  0  0  0  0  0  0  0  0  0  0  0
    0.2533   -1.2349    0.0313 C   0  0  0  0  0  0  0  0  0  0  0  0
   -0.2515   -2.4917   -0.2757 C   0  0  0  0  0  0  0  0  0  0  0  0
   -1.4543   -2.5576   -0.9677 C   0  0  0  0  0  0  0  0  0  0  0  0
   -2.2806   -1.4495   -0.9045 C   0  0  0  0  0  0  0  0  0  0  0  0
   -1.8569   -0.3098   -0.2227 C   0  0  0  0  0  0  0  0  0  0  0  0
   -2.8184    0.9137   -0.7424 C   0  0  2  0  0  0  0  0  0  0  0  0
   -1.6717    2.1248   -0.5498 C   0  0  0  0  0  0  0  0  0  0  0  0
   -3.3668    1.1646    0.7471 N   0  0  0  0  0  0  0  0  0  0  0  0
   -4.2127    2.3468    0.5919 C   0  0  0  0  0  0  0  0  0  0  0  0
   -4.1311   -0.0228    1.0214 C   0  0  0  0  0  0  0  0  0  0  0  0
   -0.5298   -0.1130   -0.2017 C   0  0  0  0  0  0  0  0  0  0  0  0
  1  2  1  0
  2  3  1  0
  3  4  1  0
  3  5  1  0
  5  6  2  0
  5  7  1  0
  7  8  1  0
  8  9  2  0
  9 10  1  0
 10 11  2  0
 11 12  1  0
 13 12  1  1
 13 14  1  0
 13 15  1  0
 15 16  1  0
 15 17  1  0
 12 18  2  0
 18  8  1  0
M  END
>  <zinc_id>  (413) 
ZINC000000004413

>  <smiles>  (413) 
CCN(C)C(=O)Oc1cccc([C@H](C)N(C)C)c1

$$$$

     RDKit          3D

 13 15  0  0  0  0  0  0  0  0999 V2000
    3.3698    0.9959    0.8661 C   0  0  0  0  0  0  0  0  0  0  0  0
    1.9246    1.0708    0.1573 C   0  0  2  0  0  0  0  0  0  0  0  0
    1.3764   -0.0710    0.9278 O   0  0  0  0  0  0  0  0  0  0  0  0
    0.3007   -0.3976    0.1285 C   0  0  1  0  0  0  0  0  0  0  0  0
    0.8399   -1.0287   -1.1420 C   0  0  0  0  0  0  0  0  0  0  0  0
    2.4190   -0.1161   -1.2867 S   0  0  0  0  0  0  0  0  0  0  0  0
   -0.6614   -1.3279    0.8028 C   0  0  0  0  0  0  0  0  0  0  0  0
   -1.9828   -1.0878    0.2497 N   0  0  0  0  0  0  0  0  0  0  0  0
   -1.9210   -0.7602   -1.1733 C   0  0  0  0  0  0  0  0  0  0  0  0
   -1.3259    0.6225   -1.3452 C   0  0  0  0  0  0  0  0  0  0  0  0
   -0.4508    0.8919   -0.1389 C   0  0  0  0  0  0  0  0  0  0  0  0
   -1.3697    1.0976    1.0621 C   0  0  0  0  0  0  0  0  0  0  0  0
   -2.5187    0.1107    0.8919 C   0  0  0  0  0  0  0  0  0  0  0  0
  2  1  1  1
  2  3  1  0
  4  3  1  1
  4  5  1  0
  5  6  1  0
  4  7  1  0
  7  8  1  0
  8  9  1  0
  9 10  1  0
 10 11  1  0
 11 12  1  0
 12 13  1  0
  6  2  1  0
 13  8  1  0
 11  4  1  0
M  END
>  <zinc_id>  (414) 
ZINC000000010163

>  <smiles>  (414) 
C[C@@H]1O[C@@]2(CS1)CN1CCC2CC1

$$$$

     RDKit          3D

 26 28  0  0  0  0  0  0  0  0999 V2000
   -2.4953    5.5499   -0.0816 C   0  0  0  0  0  0  0  0  0  0  0  0
   -2.0254    4.1625    0.0937 C   0  0  0  0  0  0  0  0  0  0  0  0
   -0.7007    3.8250    0.3402 C   0  0  0  0  0  0  0  0  0  0  0  0
   -0.3314    2.4868    0.4011 C   0  0  0  0  0  0  0  0  0  0  0  0
   -1.2485    1.4616    0.2339 C   0  0  0  0  0  0  0  0  0  0  0  0
   -0.8425    0.1561   -0.2715 C   0  0  0  0  0  0  0  0  0  0  0  0
   -1.7907   -0.7179   -0.5890 C   0  0  0  0  0  0  0  0  0  0  0  0
   -3.1402   -0.6745    0.0565 C   0  0  0  0  0  0  0  0  0  0  0  0
   -3.8267   -1.8736   -0.4219 N   0  0  0  0  0  0  0  0  0  0  0  0
   -5.0092   -2.1681    0.3465 C   0  0  0  0  0  0  0  0  0  0  0  0
   -4.6190   -3.1871    1.3817 C   0  0  0  0  0  0  0  0  0  0  0  0
   -3.1047   -3.2885    1.2782 C   0  0  0  0  0  0  0  0  0  0  0  0
   -2.8910   -2.9700   -0.1816 C   0  0  0  0  0  0  0  0  0  0  0  0
    0.5409   -0.2614   -0.3437 C   0  0  0  0  0  0  0  0  0  0  0  0
    0.8879   -1.2152   -1.2930 C   0  0  0  0  0  0  0  0  0  0  0  0
    2.0427   -1.9628   -1.0936 C   0  0  0  0  0  0  0  0  0  0  0  0
    3.0595   -1.3162   -0.4181 C   0  0  0  0  0  0  0  0  0  0  0  0
    2.8254   -0.1309    0.2662 C   0  0  0  0  0  0  0  0  0  0  0  0
    3.9030    0.5668    0.9727 C   0  0  0  0  0  0  0  0  0  0  0  0
    4.9848   -0.1469    1.2868 C   0  0  0  0  0  0  0  0  0  0  0  0
    5.5440   -0.9532    0.1934 C   0  0  0  0  0  0  0  0  0  0  0  0
    6.3292   -0.3339   -0.5866 O   0  0  0  0  0  0  0  0  0  0  0  0
    5.8947   -2.2813    0.4521 O   0  0  0  0  0  0  0  0  0  0  0  0
    1.5367    0.2538    0.3863 N   0  0  0  0  0  0  0  0  0  0  0  0
   -2.5659    1.8597    0.1366 C   0  0  0  0  0  0  0  0  0  0  0  0
   -2.9576    3.1592    0.3107 C   0  0  0  0  0  0  0  0  0  0  0  0
  1  2  1  0
  2  3  2  0
  3  4  1  0
  4  5  2  0
  5  6  1  0
  6  7  2  0
  7  8  1  0
  8  9  1  0
  9 10  1  0
 10 11  1  0
 11 12  1  0
 12 13  1  0
  6 14  1  0
 14 15  2  0
 15 16  1  0
 16 17  2  0
 17 18  1  0
 18 19  1  0
 19 20  2  0
 20 21  1  0
 21 22  2  0
 21 23  1  0
 18 24  2  0
  5 25  1  0
 25 26  2  0
 26  2  1  0
 13  9  1  0
 24 14  1  0
M  END
>  <zinc_id>  (415) 
ZINC000100296828

>  <smiles>  (415) 
Cc1ccc(/C(=C\CN2CCCC2)c2cccc(/C=C\C(=O)O)n2)cc1

$$$$

     RDKit          3D

 26 28  0  0  0  0  0  0  0  0999 V2000
   -2.3278   -5.5886    1.1659 C   0  0  0  0  0  0  0  0  0  0  0  0
   -2.2558   -4.2190    0.5692 C   0  0  0  0  0  0  0  0  0  0  0  0
   -1.6129   -3.9828   -0.6322 C   0  0  0  0  0  0  0  0  0  0  0  0
   -1.1713   -2.6967   -0.8554 C   0  0  0  0  0  0  0  0  0  0  0  0
   -1.6416   -1.6194   -0.1435 C   0  0  0  0  0  0  0  0  0  0  0  0
   -0.8959   -0.3549   -0.1015 C   0  0  0  0  0  0  0  0  0  0  0  0
   -1.5218    0.7659    0.2576 C   0  0  0  0  0  0  0  0  0  0  0  0
   -0.8482    2.0877    0.0620 C   0  0  0  0  0  0  0  0  0  0  0  0
   -1.8425    3.0969    0.3504 N   0  0  0  0  0  0  0  0  0  0  0  0
   -2.7892    3.2600   -0.7221 C   0  0  0  0  0  0  0  0  0  0  0  0
   -4.0778    3.7331   -0.0624 C   0  0  0  0  0  0  0  0  0  0  0  0
   -3.8415    3.6045    1.4268 C   0  0  0  0  0  0  0  0  0  0  0  0
   -2.6153    2.7419    1.5279 C   0  0  0  0  0  0  0  0  0  0  0  0
    0.3749   -0.1935   -0.8166 C   0  0  0  0  0  0  0  0  0  0  0  0
    0.3164    0.4037   -2.0696 C   0  0  0  0  0  0  0  0  0  0  0  0
    1.5078    0.7022   -2.6728 C   0  0  0  0  0  0  0  0  0  0  0  0
    2.6762    0.6672   -1.9225 C   0  0  0  0  0  0  0  0  0  0  0  0
    2.7290    0.0531   -0.6766 C   0  0  0  0  0  0  0  0  0  0  0  0
    3.8725   -0.8049   -0.3375 C   0  0  0  0  0  0  0  0  0  0  0  0
    4.9922   -0.1611   -0.0126 C   0  0  0  0  0  0  0  0  0  0  0  0
    4.8521    0.8604    1.0325 C   0  0  0  0  0  0  0  0  0  0  0  0
    4.2387    1.9472    0.8123 O   0  0  0  0  0  0  0  0  0  0  0  0
    5.9067    0.9291    1.9483 O   0  0  0  0  0  0  0  0  0  0  0  0
    1.5226   -0.1600   -0.0962 N   0  0  0  0  0  0  0  0  0  0  0  0
   -2.5398   -1.8962    0.8774 C   0  0  0  0  0  0  0  0  0  0  0  0
   -3.0075   -3.1757    1.0912 C   0  0  0  0  0  0  0  0  0  0  0  0
  1  2  1  0
  2  3  2  0
  3  4  1  0
  4  5  2  0
  5  6  1  0
  6  7  2  0
  7  8  1  0
  8  9  1  0
  9 10  1  0
 10 11  1  0
 11 12  1  0
 12 13  1  0
  6 14  1  0
 14 15  2  0
 15 16  1  0
 16 17  2  0
 17 18  1  0
 18 19  1  0
 19 20  2  0
 20 21  1  0
 21 22  2  0
 21 23  1  0
 18 24  2  0
  5 25  1  0
 25 26  2  0
 26  2  1  0
 13  9  1  0
 24 14  1  0
M  END
>  <zinc_id>  (416) 
ZINC000100296832

>  <smiles>  (416) 
Cc1ccc(/C(=C/CN2CCCC2)c2cccc(/C=C\C(=O)O)n2)cc1

$$$$

     RDKit          3D

 42 49  0  0  0  0  0  0  0  0999 V2000
    3.1669   -0.6327    0.8304 C   0  0  0  0  0  0  0  0  0  0  0  0
    3.0720   -0.4307   -0.4534 C   0  0  0  0  0  0  0  0  0  0  0  0
    2.7943   -1.7749   -1.1175 C   0  0  0  0  0  0  0  0  0  0  0  0
    1.9449    0.4202   -0.7630 N   0  0  0  0  0  0  0  0  0  0  0  0
    0.8732    0.6753    0.1526 C   0  0  0  0  0  0  0  0  0  0  0  0
    1.2393    0.7602    1.3647 O   0  0  0  0  0  0  0  0  0  0  0  0
   -0.5168    0.3302   -0.1264 C   0  0  0  0  0  0  0  0  0  0  0  0
   -1.4159    1.1538   -0.6284 C   0  0  0  0  0  0  0  0  0  0  0  0
   -0.9781    2.4377   -0.9824 O   0  0  0  0  0  0  0  0  0  0  0  0
   -2.2191    0.4570   -1.8994 C   0  0  2  0  0  0  0  0  0  0  0  0
   -3.2822    1.6199   -1.9593 O   0  0  0  0  0  0  0  0  0  0  0  0
   -3.6167    1.8174   -0.6473 C   0  0  0  0  0  0  0  0  0  0  0  0
   -3.6355    0.5967   -0.0503 C   0  0  0  0  0  0  0  0  0  0  0  0
   -3.7535    0.3494    1.2851 C   0  0  0  0  0  0  0  0  0  0  0  0
   -4.3539    1.3693    2.0100 C   0  0  0  0  0  0  0  0  0  0  0  0
   -4.6368    2.5785    1.3748 C   0  0  0  0  0  0  0  0  0  0  0  0
   -4.4046    2.7562    0.0140 C   0  0  0  0  0  0  0  0  0  0  0  0
   -5.0245    3.7286   -0.7432 O   0  0  0  0  0  0  0  0  0  0  0  0
   -3.0687   -0.7184    1.9657 C   0  0  0  0  0  0  0  0  0  0  0  0
   -3.1489   -2.0831    1.0104 C   0  0  1  0  0  0  0  0  0  0  0  0
   -4.6250   -1.7575    0.4703 N   0  0  0  0  0  0  0  0  0  0  0  0
   -5.3821   -2.6415    1.3468 C   0  0  0  0  0  0  0  0  0  0  0  0
   -6.8479   -2.3262    1.2902 C   0  0  0  0  0  0  0  0  0  0  0  0
   -7.3539   -1.0264    0.7874 C   0  0  0  0  0  0  0  0  0  0  0  0
   -7.3629   -1.2850    2.3215 C   0  0  0  0  0  0  0  0  0  0  0  0
   -4.6220   -2.3182   -0.8846 C   0  0  0  0  0  0  0  0  0  0  0  0
   -4.1811   -1.1419   -1.7608 C   0  0  0  0  0  0  0  0  0  0  0  0
   -3.1926   -0.4495   -0.9016 C   0  0  1  0  0  0  0  0  0  0  0  0
   -2.3230   -1.3811   -0.2529 C   0  0  2  0  0  0  0  0  0  0  0  0
   -1.9828   -2.4716   -1.0532 O   0  0  0  0  0  0  0  0  0  0  0  0
   -1.0922   -0.9249    0.4345 C   0  0  0  0  0  0  0  0  0  0  0  0
    4.3542    0.0890   -0.9552 C   0  0  0  0  0  0  0  0  0  0  0  0
    5.5306   -0.4977   -0.6284 N   0  0  0  0  0  0  0  0  0  0  0  0
    6.5440    0.3295   -0.9873 C   0  0  0  0  0  0  0  0  0  0  0  0
    7.8577    0.4348   -0.3373 C   0  0  0  0  0  0  0  0  0  0  0  0
    7.9705    1.0561    0.9004 C   0  0  0  0  0  0  0  0  0  0  0  0
    8.7578    0.5240    1.9127 C   0  0  0  0  0  0  0  0  0  0  0  0
    9.6350   -0.5164    1.6338 C   0  0  0  0  0  0  0  0  0  0  0  0
    9.7924   -0.8790    0.3203 C   0  0  0  0  0  0  0  0  0  0  0  0
    8.8939   -0.4403   -0.6440 C   0  0  0  0  0  0  0  0  0  0  0  0
    5.9387    1.2340   -1.7957 N   0  0  0  0  0  0  0  0  0  0  0  0
    4.6556    0.9743   -1.8540 O   0  0  0  0  0  0  0  0  0  0  0  0
  1  2  1  0
  2  3  1  0
  2  4  1  0
  4  5  1  0
  5  6  2  0
  5  7  1  0
  7  8  2  0
  8  9  1  0
 10  8  1  1
 10 11  1  0
 11 12  1  0
 12 13  2  0
 13 14  1  0
 14 15  2  0
 15 16  1  0
 16 17  2  0
 17 18  1  0
 14 19  1  0
 20 19  1  1
 20 21  1  0
 21 22  1  0
 22 23  1  0
 23 24  1  0
 24 25  1  0
 21 26  1  0
 26 27  1  0
 28 27  1  6
 28 29  1  0
 29 30  1  6
 29 31  1  0
  2 32  1  0
 32 33  2  0
 33 34  1  0
 34 35  1  0
 35 36  2  0
 36 37  1  0
 37 38  2  0
 38 39  1  0
 39 40  2  0
 34 41  2  0
 41 42  1  0
 31  7  1  0
 42 32  1  0
 28 10  1  0
 40 35  1  0
 17 12  1  0
 29 20  1  0
 28 13  1  0
 25 23  1  0
M  END
>  <zinc_id>  (417) 
ZINC000100378061

>  <smiles>  (417) 
CC(C)(NC(=O)C1=C(O)[C@@H]2Oc3c(O)ccc4c3[C@@]23CCN(CC2CC2)[C@H](C4)[C@]3(O)C1)c1nc(-c2ccccc2)no1

$$$$

     RDKit          3D

 41 45  0  0  0  0  0  0  0  0999 V2000
   -8.2277   -0.4107    0.8671 C   0  0  0  0  0  0  0  0  0  0  0  0
   -8.2915   -0.3645    0.7464 S   0  0  0  0  0  0  0  0  0  0  0  0
   -7.9850   -1.8012    1.0215 O   0  0  0  0  0  0  0  0  0  0  0  0
   -8.1867    0.5514    1.9209 O   0  0  0  0  0  0  0  0  0  0  0  0
   -7.3811    0.2350   -0.6393 C   0  0  0  0  0  0  0  0  0  0  0  0
   -7.3644    1.6034   -0.8546 C   0  0  0  0  0  0  0  0  0  0  0  0
   -6.3233    2.1965   -1.5578 C   0  0  0  0  0  0  0  0  0  0  0  0
   -5.1311    1.5245   -1.7009 C   0  0  0  0  0  0  0  0  0  0  0  0
   -5.0400    0.1981   -1.3092 C   0  0  0  0  0  0  0  0  0  0  0  0
   -3.7169   -0.4136   -0.9791 C   0  0  0  0  0  0  0  0  0  0  0  0
   -3.8401   -0.7716    0.6278 C   0  0  2  0  0  0  0  0  0  0  0  0
   -2.2970   -0.8004    0.9274 N   0  0  0  0  0  0  0  0  0  0  0  0
   -1.3788   -0.5457   -0.0579 C   0  0  0  0  0  0  0  0  0  0  0  0
   -1.7010    0.3697   -0.8753 O   0  0  0  0  0  0  0  0  0  0  0  0
    0.0010   -0.9920    0.1319 C   0  0  0  0  0  0  0  0  0  0  0  0
    0.6042   -1.6982   -0.8945 C   0  0  0  0  0  0  0  0  0  0  0  0
   -0.2415   -1.8176   -2.4395 Cl  0  0  0  0  0  0  0  0  0  0  0  0
    1.9853   -1.8229   -0.8338 C   0  0  0  0  0  0  0  0  0  0  0  0
    2.7650   -1.1134    0.0730 C   0  0  0  0  0  0  0  0  0  0  0  0
    2.0983   -0.5187    1.1422 C   0  0  0  0  0  0  0  0  0  0  0  0
    0.7093   -0.4436    1.1873 C   0  0  0  0  0  0  0  0  0  0  0  0
   -0.1186    0.6764    2.2707 Cl  0  0  0  0  0  0  0  0  0  0  0  0
    2.8526    0.6026    1.7954 C   0  0  0  0  0  0  0  0  0  0  0  0
    3.0437    1.6265    0.6811 C   0  0  0  0  0  0  0  0  0  0  0  0
    3.4758    0.9836   -0.5603 N   0  0  0  0  0  0  0  0  0  0  0  0
    4.3432    1.8095   -1.3530 C   0  0  0  0  0  0  0  0  0  0  0  0
    3.8186    2.6430   -2.1116 O   0  0  0  0  0  0  0  0  0  0  0  0
    5.7086    1.9212   -0.8185 C   0  0  0  0  0  0  0  0  0  0  0  0
    6.7295    1.5057   -1.6656 C   0  0  0  0  0  0  0  0  0  0  0  0
    7.8454    0.8513   -1.1559 C   0  0  0  0  0  0  0  0  0  0  0  0
    7.9225    0.5021    0.1874 C   0  0  0  0  0  0  0  0  0  0  0  0
    8.3393   -0.6365    0.8677 C   0  0  0  0  0  0  0  0  0  0  0  0
    7.8986   -0.4243    2.1686 C   0  0  0  0  0  0  0  0  0  0  0  0
    7.2418    0.6964    2.2347 O   0  0  0  0  0  0  0  0  0  0  0  0
    7.1410    1.2681    1.0451 C   0  0  0  0  0  0  0  0  0  0  0  0
    5.9863    1.8541    0.5314 C   0  0  0  0  0  0  0  0  0  0  0  0
    3.9964   -0.3785   -0.3885 C   0  0  0  0  0  0  0  0  0  0  0  0
   -3.9074   -2.3617    0.3588 C   0  0  0  0  0  0  0  0  0  0  0  0
   -3.0710   -2.8489   -0.3912 O   0  0  0  0  0  0  0  0  0  0  0  0
   -4.0883   -3.0179    1.5827 O   0  0  0  0  0  0  0  0  0  0  0  0
   -6.2149   -0.4371   -0.9839 C   0  0  0  0  0  0  0  0  0  0  0  0
  1  2  1  0
  2  3  2  0
  2  4  2  0
  2  5  1  0
  5  6  2  0
  6  7  1  0
  7  8  2  0
  8  9  1  0
  9 10  1  0
 11 10  1  6
 11 12  1  0
 12 13  1  0
 13 14  2  0
 13 15  1  0
 15 16  2  0
 16 17  1  0
 16 18  1  0
 18 19  2  0
 19 20  1  0
 20 21  2  0
 21 22  1  0
 20 23  1  0
 23 24  1  0
 24 25  1  0
 25 26  1  0
 26 27  2  0
 26 28  1  0
 28 29  2  0
 29 30  1  0
 30 31  2  0
 31 32  1  0
 32 33  2  0
 33 34  1  0
 34 35  1  0
 35 36  2  0
 25 37  1  0
 11 38  1  0
 38 39  2  0
 38 40  1  0
  9 41  2  0
 41  5  1  0
 21 15  1  0
 36 28  1  0
 37 19  1  0
 35 31  1  0
M  END
>  <zinc_id>  (418) 
ZINC000084668739

>  <smiles>  (418) 
CS(=O)(=O)c1cccc(C[C@H](NC(=O)c2c(Cl)cc3c(c2Cl)CCN(C(=O)c2ccc4ccoc4c2)C3)C(=O)O)c1

$$$$

     RDKit          3D

 56 59  0  0  0  0  0  0  0  0999 V2000
    0.6240    3.8203    2.0266 C   0  0  0  0  0  0  0  0  0  0  0  0
    0.3429    3.5153    1.2263 C   0  0  0  0  0  0  0  0  0  0  0  0
    0.0514    4.7835    0.2316 C   0  0  2  0  0  0  0  0  0  0  0  0
   -1.5359    4.7177    0.5033 C   0  0  0  0  0  0  0  0  0  0  0  0
   -1.9332    4.7416    1.7613 C   0  0  0  0  0  0  0  0  0  0  0  0
   -2.7035    5.9580    2.2035 C   0  0  0  0  0  0  0  0  0  0  0  0
   -2.3568    3.4234    2.3623 C   0  0  0  0  0  0  0  0  0  0  0  0
   -3.4992    3.0210    1.2734 C   0  0  2  0  0  0  0  0  0  0  0  0
   -4.6446    3.8847    2.0504 C   0  0  0  0  0  0  0  0  0  0  0  0
   -3.9346    1.6369    1.9993 C   0  0  0  0  0  0  0  0  0  0  0  0
   -2.6866    0.6032    1.7924 C   0  0  2  0  0  0  0  0  0  0  0  0
   -2.2513    1.1365    0.4538 O   0  0  0  0  0  0  0  0  0  0  0  0
   -3.2729    1.2141   -0.4084 C   0  0  0  0  0  0  0  0  0  0  0  0
   -3.7001   -0.5765    1.0575 C   0  0  1  0  0  0  0  0  0  0  0  0
   -2.6485   -1.6430    0.9545 O   0  0  0  0  0  0  0  0  0  0  0  0
   -3.1663   -2.3659   -0.0038 C   0  0  1  0  0  0  0  0  0  0  0  0
   -3.8438   -1.7680   -1.0601 O   0  0  0  0  0  0  0  0  0  0  0  0
   -2.6273   -3.6051   -0.5728 C   0  0  0  0  0  0  0  0  0  0  0  0
   -2.8792   -4.7900   -0.1797 O   0  0  0  0  0  0  0  0  0  0  0  0
   -2.2687   -3.5261   -2.0076 C   0  0  0  0  0  0  0  0  0  0  0  0
   -2.4512   -4.4615   -2.8426 O   0  0  0  0  0  0  0  0  0  0  0  0
   -1.6309   -2.2833   -2.3737 N   0  0  0  0  0  0  0  0  0  0  0  0
   -0.9854   -2.1362   -3.6399 C   0  0  0  0  0  0  0  0  0  0  0  0
   -0.0870   -3.3439   -3.8420 C   0  0  0  0  0  0  0  0  0  0  0  0
    0.3940   -3.7191   -2.4417 C   0  0  0  0  0  0  0  0  0  0  0  0
    0.6094   -2.4782   -1.7309 C   0  0  0  0  0  0  0  0  0  0  0  0
   -0.7849   -1.9018   -1.0987 C   0  0  1  0  0  0  0  0  0  0  0  0
   -0.4727   -0.3939   -1.5815 C   0  0  0  0  0  0  0  0  0  0  0  0
   -1.4984    0.3359   -1.6292 O   0  0  0  0  0  0  0  0  0  0  0  0
    0.5864   -0.1586   -0.6762 O   0  0  0  0  0  0  0  0  0  0  0  0
    1.8057   -0.4964   -1.5496 C   0  0  2  0  0  0  0  0  0  0  0  0
    2.9477   -0.2832   -0.4225 C   0  0  0  0  0  0  0  0  0  0  0  0
    2.5775   -0.6304    0.9763 C   0  0  0  0  0  0  0  0  0  0  0  0
    4.1737   -0.7016   -0.8059 C   0  0  0  0  0  0  0  0  0  0  0  0
    5.0699   -1.3629    0.3505 C   0  0  2  0  0  0  0  0  0  0  0  0
    5.2350    0.0455    1.1492 C   0  0  0  0  0  0  0  0  0  0  0  0
    6.5112    0.6687    0.9832 C   0  0  0  0  0  0  0  0  0  0  0  0
    7.7517   -0.1933    1.4301 C   0  0  2  0  0  0  0  0  0  0  0  0
    8.7905    0.2526   -0.0407 Cl  0  0  0  0  0  0  0  0  0  0  0  0
    7.1943   -1.7231    1.0089 C   0  0  2  0  0  0  0  0  0  0  0  0
    8.5010   -2.1564    0.3882 O   0  0  0  0  0  0  0  0  0  0  0  0
    8.9001   -3.0713    1.3790 C   0  0  0  0  0  0  0  0  0  0  0  0
    6.5195   -1.2294   -0.4151 C   0  0  0  0  0  0  0  0  0  0  0  0
    1.8385    1.0890   -2.2090 C   0  0  2  0  0  0  0  0  0  0  0  0
    3.4080    1.3686   -2.1513 C   0  0  0  0  0  0  0  0  0  0  0  0
    1.3179    1.8883   -0.7902 C   0  0  1  0  0  0  0  0  0  0  0  0
    2.6622    2.2106   -0.1925 O   0  0  0  0  0  0  0  0  0  0  0  0
    1.2439    3.3134   -1.5947 C   0  0  0  0  0  0  0  0  0  0  0  0
   -0.0630    3.8576   -1.0819 C   0  0  0  0  0  0  0  0  0  0  0  0
   -0.6549    4.5206   -1.9393 O   0  0  0  0  0  0  0  0  0  0  0  0
   -4.5090   -3.0754    0.6406 C   0  0  2  0  0  0  0  0  0  0  0  0
   -5.6401   -1.9341    0.2924 C   0  0  0  0  0  0  0  0  0  0  0  0
   -4.3273   -2.7388    2.1999 C   0  0  0  0  0  0  0  0  0  0  0  0
   -4.1571   -1.1862    2.5930 C   0  0  2  0  0  0  0  0  0  0  0  0
   -5.6267   -0.8643    2.3982 O   0  0  0  0  0  0  0  0  0  0  0  0
   -6.2156   -1.2091    3.5956 C   0  0  0  0  0  0  0  0  0  0  0  0
  1  2  1  0
  3  2  1  1
  3  4  1  0
  4  5  2  0
  5  6  1  0
  5  7  1  0
  7  8  1  0
  8  9  1  1
  8 10  1  0
 10 11  1  0
 11 12  1  6
 12 13  1  0
 11 14  1  0
 14 15  1  6
 15 16  1  0
 16 17  1  6
 16 18  1  0
 18 19  2  0
 18 20  1  0
 20 21  2  0
 20 22  1  0
 22 23  1  0
 23 24  1  0
 24 25  1  0
 25 26  1  0
 27 26  1  6
 27 28  1  0
 28 29  2  0
 28 30  1  0
 30 31  1  0
 31 32  1  1
 32 33  1  0
 32 34  2  0
 35 34  1  6
 35 36  1  0
 36 37  1  0
 37 38  1  0
 38 39  1  6
 38 40  1  0
 40 41  1  6
 41 42  1  0
 40 43  1  0
 31 44  1  0
 44 45  1  1
 44 46  1  0
 46 47  1  1
 46 48  1  0
 48 49  1  0
 49 50  2  0
 16 51  1  0
 51 52  1  6
 51 53  1  0
 53 54  1  0
 54 55  1  6
 55 56  1  0
 49  3  1  0
 54 14  1  0
 27 22  1  0
 43 35  1  0
M  END
>  <zinc_id>  (419) 
ZINC000085536990

>  <smiles>  (419) 
CC[C@@H]1/C=C(\C)C[C@H](C)C[C@H](OC)[C@H]2O[C@@](O)(C(=O)C(=O)N3CCCC[C@H]3C(=O)O[C@H](/C(C)=C/[C@@H]3CC[C@H](Cl)[C@H](OC)C3)[C@H](C)[C@@H](O)CC1=O)[C@H](C)C[C@@H]2OC

$$$$

     RDKit          3D

 65 68  0  0  0  0  0  0  0  0999 V2000
   -6.9253   -0.7239    2.0008 C   0  0  0  0  0  0  0  0  0  0  0  0
   -7.1535   -0.8824    1.7538 O   0  0  0  0  0  0  0  0  0  0  0  0
   -6.1244   -1.0201    0.6677 C   0  0  2  0  0  0  0  0  0  0  0  0
   -6.9863   -1.7131   -0.4437 C   0  0  0  0  0  0  0  0  0  0  0  0
   -5.5946   -1.3800    0.3319 C   0  0  2  0  0  0  0  0  0  0  0  0
   -4.5573   -2.0904   -0.6661 C   0  0  0  0  0  0  0  0  0  0  0  0
   -4.4468   -0.7235   -1.5109 C   0  0  2  0  0  0  0  0  0  0  0  0
   -4.5051   -1.5954   -2.8772 C   0  0  0  0  0  0  0  0  0  0  0  0
   -2.7260   -0.6034   -1.4431 C   0  0  2  0  0  0  0  0  0  0  0  0
   -2.4965   -2.2146   -1.6354 C   0  0  0  0  0  0  0  0  0  0  0  0
   -1.4257   -2.7124   -0.8103 C   0  0  0  0  0  0  0  0  0  0  0  0
   -1.2205   -2.4989    0.3578 O   0  0  0  0  0  0  0  0  0  0  0  0
   -0.1906   -3.3965   -1.5986 C   0  0  2  0  0  0  0  0  0  0  0  0
   -1.1937   -4.3803   -2.4476 C   0  0  0  0  0  0  0  0  0  0  0  0
    0.1061   -4.5160   -0.4765 C   0  0  0  0  0  0  0  0  0  0  0  0
    1.3580   -5.0115   -0.4224 C   0  0  0  0  0  0  0  0  0  0  0  0
    1.3998   -6.5131   -0.6104 C   0  0  0  0  0  0  0  0  0  0  0  0
    1.9911   -4.6334    1.0248 C   0  0  1  0  0  0  0  0  0  0  0  0
    3.1541   -5.6064    0.9611 O   0  0  0  0  0  0  0  0  0  0  0  0
    2.8655   -3.2648    0.4003 C   0  0  1  0  0  0  0  0  0  0  0  0
    3.8980   -3.4227    1.4954 O   0  0  0  0  0  0  0  0  0  0  0  0
    3.2364   -3.5354    2.6873 C   0  0  0  0  0  0  0  0  0  0  0  0
    3.7233   -4.0699   -0.6916 C   0  0  0  0  0  0  0  0  0  0  0  0
    3.2172   -4.0787   -1.8173 O   0  0  0  0  0  0  0  0  0  0  0  0
    5.1799   -3.4969   -1.0342 C   0  0  2  0  0  0  0  0  0  0  0  0
    5.8870   -4.2198    0.2555 C   0  0  0  0  0  0  0  0  0  0  0  0
    5.0017   -2.0596   -0.2747 C   0  0  0  0  0  0  0  0  0  0  0  0
    6.1084   -1.2361   -1.1569 C   0  0  2  0  0  0  0  0  0  0  0  0
    7.3460   -1.8833   -0.3014 C   0  0  0  0  0  0  0  0  0  0  0  0
    6.0463    0.0648   -0.2271 C   0  0  0  0  0  0  0  0  0  0  0  0
    5.8988   -0.0902    1.0540 C   0  0  0  0  0  0  0  0  0  0  0  0
    5.2749    1.0750    1.7105 C   0  0  0  0  0  0  0  0  0  0  0  0
    6.1925    2.0141    1.8353 C   0  0  0  0  0  0  0  0  0  0  0  0
    5.8949    3.3427    1.3040 C   0  0  0  0  0  0  0  0  0  0  0  0
    5.1895    3.4947    0.1862 C   0  0  0  0  0  0  0  0  0  0  0  0
    5.7769    4.3181   -0.9070 C   0  0  0  0  0  0  0  0  0  0  0  0
    3.6243    3.7262    0.5382 C   0  0  1  0  0  0  0  0  0  0  0  0
    3.7834    5.2420    0.5411 O   0  0  0  0  0  0  0  0  0  0  0  0
    3.5337    5.6098    1.8664 C   0  0  0  0  0  0  0  0  0  0  0  0
    3.1868    3.7267   -1.0560 C   0  0  0  0  0  0  0  0  0  0  0  0
    1.9422    2.6383   -0.9735 C   0  0  2  0  0  0  0  0  0  0  0  0
    1.5204    3.0518   -2.5164 C   0  0  0  0  0  0  0  0  0  0  0  0
    1.2392    4.4625   -2.5710 C   0  0  0  0  0  0  0  0  0  0  0  0
   -0.1018    4.9102   -1.7706 C   0  0  1  0  0  0  0  0  0  0  0  0
   -1.0886    4.4109   -2.9809 C   0  0  0  0  0  0  0  0  0  0  0  0
   -0.2105    3.5798   -0.7896 C   0  0  1  0  0  0  0  0  0  0  0  0
   -0.4977    2.6929   -1.6701 O   0  0  0  0  0  0  0  0  0  0  0  0
    1.0534    3.6532   -0.2868 O   0  0  0  0  0  0  0  0  0  0  0  0
   -1.0957    4.2623    0.1547 C   0  0  0  0  0  0  0  0  0  0  0  0
   -0.6875    5.3168    0.7480 O   0  0  0  0  0  0  0  0  0  0  0  0
   -2.5299    4.0656   -0.1399 C   0  0  0  0  0  0  0  0  0  0  0  0
   -3.3699    5.0109   -0.0035 O   0  0  0  0  0  0  0  0  0  0  0  0
   -2.9423    2.6858   -0.2211 N   0  0  0  0  0  0  0  0  0  0  0  0
   -4.2871    2.4789    0.1749 C   0  0  0  0  0  0  0  0  0  0  0  0
   -4.2699    2.5782    1.6689 C   0  0  0  0  0  0  0  0  0  0  0  0
   -2.9702    2.5576    2.3141 C   0  0  0  0  0  0  0  0  0  0  0  0
   -1.6955    2.3793    1.7091 C   0  0  0  0  0  0  0  0  0  0  0  0
   -1.7943    1.6792    0.2155 C   0  0  1  0  0  0  0  0  0  0  0  0
   -2.7295    0.5093    0.7761 C   0  0  0  0  0  0  0  0  0  0  0  0
   -2.5268    0.1133    1.9713 O   0  0  0  0  0  0  0  0  0  0  0  0
   -2.7044   -0.6991    0.0767 O   0  0  0  0  0  0  0  0  0  0  0  0
   -5.9320   -2.5476    1.4764 C   0  0  0  0  0  0  0  0  0  0  0  0
   -6.0030   -2.6726    2.5567 C   0  0  0  0  0  0  0  0  0  0  0  0
   -5.3549   -2.5853    1.1060 C   0  0  1  0  0  0  0  0  0  0  0  0
   -6.2919   -3.5738    0.4112 O   0  0  0  0  0  0  0  0  0  0  0  0
  1  2  1  0
  3  2  1  1
  3  4  1  0
  4  5  1  0
  5  6  1  6
  7  6  1  1
  7  8  1  0
  7  9  1  0
  9 10  1  6
 10 11  1  0
 11 12  2  0
 11 13  1  0
 13 14  1  6
 13 15  1  0
 15 16  2  0
 16 17  1  0
 16 18  1  0
 18 19  1  6
 18 20  1  0
 20 21  1  1
 21 22  1  0
 20 23  1  0
 23 24  2  0
 23 25  1  0
 25 26  1  1
 25 27  1  0
 27 28  1  0
 28 29  1  1
 28 30  1  0
 30 31  2  0
 31 32  1  0
 32 33  2  0
 33 34  1  0
 34 35  2  0
 35 36  1  0
 35 37  1  0
 37 38  1  6
 38 39  1  0
 37 40  1  0
 41 40  1  6
 41 42  1  0
 42 43  1  0
 43 44  1  0
 44 45  1  6
 44 46  1  0
 46 47  1  6
 46 48  1  0
 46 49  1  0
 49 50  2  0
 49 51  1  0
 51 52  2  0
 51 53  1  0
 53 54  1  0
 54 55  1  0
 55 56  1  0
 56 57  1  0
 58 57  1  1
 58 59  1  0
 59 60  2  0
 59 61  1  0
  5 62  1  0
 62 63  1  0
 63 64  1  0
 64 65  1  6
 64  3  1  0
 61  9  1  0
 48 41  1  0
 58 53  1  0
M  END
>  <zinc_id>  (420) 
ZINC000096006018

>  <smiles>  (420) 
CO[C@H]1C[C@@H]2CC[C@@H](C)[C@@](O)(O2)C(=O)C(=O)N2CCCC[C@H]2C(=O)O[C@H]([C@@H](C)C[C@@H]2CC[C@@H](O)[C@H](OC)C2)CC(=O)[C@H](C)/C=C(\C)[C@@H](O)[C@@H](OC)C(=O)[C@H](C)C[C@H](C)/C=C/C=C/C=C/1C

$$$$

     RDKit          3D

 12 12  0  0  0  0  0  0  0  0999 V2000
   -3.7200    0.7269    0.2692 C   0  0  0  0  0  0  0  0  0  0  0  0
   -2.3162    0.7267    0.2850 O   0  0  0  0  0  0  0  0  0  0  0  0
   -1.6485   -0.2798   -0.4190 C   0  0  0  0  0  0  0  0  0  0  0  0
   -2.0412   -0.4251   -1.6167 O   0  0  0  0  0  0  0  0  0  0  0  0
   -0.2560   -0.6434   -0.1303 C   0  0  0  0  0  0  0  0  0  0  0  0
    0.6366   -1.0029   -1.1315 C   0  0  0  0  0  0  0  0  0  0  0  0
    1.9815   -0.6572   -1.0764 C   0  0  0  0  0  0  0  0  0  0  0  0
    2.4401    0.1806   -0.0666 C   0  0  0  0  0  0  0  0  0  0  0  0
    3.4291    1.2673   -0.3544 C   0  0  0  0  0  0  0  0  0  0  0  0
    1.6749    0.1790    1.0944 C   0  0  0  0  0  0  0  0  0  0  0  0
    0.3139   -0.0904    1.0094 C   0  0  0  0  0  0  0  0  0  0  0  0
   -0.4942    0.0184    2.1368 O   0  0  0  0  0  0  0  0  0  0  0  0
  1  2  1  0
  2  3  1  0
  3  4  2  0
  3  5  1  0
  5  6  2  0
  6  7  1  0
  7  8  2  0
  8  9  1  0
  8 10  1  0
 10 11  2  0
 11 12  1  0
 11  5  1  0
M  END
>  <zinc_id>  (421) 
ZINC000000395010

>  <smiles>  (421) 
COC(=O)c1ccc(C)cc1O

$$$$

     RDKit          3D

  9  9  0  0  0  0  0  0  0  0999 V2000
   -0.2548    1.1114    1.3302 N   0  0  0  0  0  0  0  0  0  0  0  0
   -0.0635    0.1344    0.2916 C   0  0  1  0  0  0  0  0  0  0  0  0
   -1.4290   -0.1878   -0.1711 C   0  0  0  0  0  0  0  0  0  0  0  0
   -2.1806   -1.0237    0.3386 O   0  0  0  0  0  0  0  0  0  0  0  0
   -2.0352    0.8693   -0.8502 O   0  0  0  0  0  0  0  0  0  0  0  0
    0.7036    0.6106   -0.9001 C   0  0  0  0  0  0  0  0  0  0  0  0
    1.6908   -0.6924   -0.7156 C   0  0  1  0  0  0  0  0  0  0  0  0
    2.7281    0.1402    0.0081 F   0  0  0  0  0  0  0  0  0  0  0  0
    0.8405   -0.9621    0.6686 C   0  0  0  0  0  0  0  0  0  0  0  0
  2  1  1  1
  2  3  1  0
  3  4  2  0
  3  5  1  0
  2  6  1  0
  6  7  1  0
  7  8  1  1
  7  9  1  0
  9  2  1  0
M  END
>  <zinc_id>  (422) 
ZINC000100070937

>  <smiles>  (422) 
N[C@@]1(C(=O)O)C[C@@H](F)C1

$$$$

     RDKit          3D

 24 28  0  0  0  0  0  0  0  0999 V2000
   -1.1094   -0.8812   -0.1243 O   0  0  0  0  0  0  0  0  0  0  0  0
   -1.2359   -0.6896   -0.0456 C   0  0  0  0  0  0  0  0  0  0  0  0
   -0.0508   -0.3699   -0.4444 O   0  0  0  0  0  0  0  0  0  0  0  0
    0.7748    0.8356    0.0607 C   0  0  1  0  0  0  0  0  0  0  0  0
    1.2139   -0.0006    1.3587 C   0  0  0  0  0  0  0  0  0  0  0  0
    2.7532   -0.3676    1.5146 C   0  0  1  0  0  0  0  0  0  0  0  0
    2.9659   -1.4189    0.1946 C   0  0  0  0  0  0  0  0  0  0  0  0
    3.9418   -0.1408    0.3217 C   0  0  2  0  0  0  0  0  0  0  0  0
    4.3064    0.2235   -1.2053 C   0  0  0  0  0  0  0  0  0  0  0  0
    3.2510    1.3451   -0.4870 C   0  0  1  0  0  0  0  0  0  0  0  0
    1.9793    0.4385   -0.9672 C   0  0  0  0  0  0  0  0  0  0  0  0
    3.3935    0.9769    1.0179 N   0  0  0  0  0  0  0  0  0  0  0  0
    4.8467    0.7625    1.3917 C   0  0  0  0  0  0  0  0  0  0  0  0
    5.2951   -0.6861    0.9232 C   0  0  0  0  0  0  0  0  0  0  0  0
    6.3730   -0.5257    0.4345 O   0  0  0  0  0  0  0  0  0  0  0  0
   -2.5328   -0.2329    0.3256 C   0  0  0  0  0  0  0  0  0  0  0  0
   -2.9896    0.5000    1.4236 C   0  0  0  0  0  0  0  0  0  0  0  0
   -3.8750    1.4251    0.9683 N   0  0  0  0  0  0  0  0  0  0  0  0
   -4.4743    0.8350   -0.0969 C   0  0  0  0  0  0  0  0  0  0  0  0
   -5.7496    1.0146   -0.6176 C   0  0  0  0  0  0  0  0  0  0  0  0
   -5.9976    0.4232   -1.8376 C   0  0  0  0  0  0  0  0  0  0  0  0
   -5.2455   -0.6858   -2.2016 C   0  0  0  0  0  0  0  0  0  0  0  0
   -4.1513   -1.0914   -1.4446 C   0  0  0  0  0  0  0  0  0  0  0  0
   -3.6829   -0.2512   -0.4631 C   0  0  0  0  0  0  0  0  0  0  0  0
  1  2  2  0
  2  3  1  0
  4  3  1  6
  4  5  1  0
  6  5  1  6
  6  7  1  0
  8  7  1  6
  8  9  1  0
  9 10  1  0
 10 11  1  6
 10 12  1  0
 12 13  1  0
 13 14  1  0
 14 15  2  0
  2 16  1  0
 16 17  2  0
 17 18  1  0
 18 19  1  0
 19 20  2  0
 20 21  1  0
 21 22  2  0
 22 23  1  0
 23 24  2  0
 11  4  1  0
 24 16  1  0
 12  6  1  0
 24 19  1  0
 14  8  1  0
M  END
>  <zinc_id>  (423) 
ZINC000103105084

>  <smiles>  (423) 
O=C(O[C@@H]1C[C@@H]2C[C@H]3C[C@H](C1)N2CC3=O)c1c[nH]c2ccccc12

$$$$

     RDKit          3D

 37 41  0  0  0  0  0  0  0  0999 V2000
   -7.9645   -2.5216   -2.6558 C   0  0  0  0  0  0  0  0  0  0  0  0
   -8.5143   -2.0070   -1.4454 O   0  0  0  0  0  0  0  0  0  0  0  0
   -7.7854   -1.1659   -0.6176 C   0  0  0  0  0  0  0  0  0  0  0  0
   -7.3426   -1.5716    0.6334 C   0  0  0  0  0  0  0  0  0  0  0  0
   -6.0777   -1.2079    1.0728 C   0  0  0  0  0  0  0  0  0  0  0  0
   -5.5417   -1.7236    2.1974 N   0  0  0  0  0  0  0  0  0  0  0  0
   -4.2464   -1.5055    2.4702 C   0  0  0  0  0  0  0  0  0  0  0  0
   -3.4466   -0.9928    1.4625 C   0  0  0  0  0  0  0  0  0  0  0  0
   -4.0404   -0.0806    0.6000 C   0  0  0  0  0  0  0  0  0  0  0  0
   -3.2462    0.6454   -0.2596 O   0  0  0  0  0  0  0  0  0  0  0  0
   -2.0601    1.2563    0.0793 C   0  0  0  0  0  0  0  0  0  0  0  0
   -1.1477    0.7415    0.9753 C   0  0  0  0  0  0  0  0  0  0  0  0
    0.1747    1.1636    0.9900 C   0  0  0  0  0  0  0  0  0  0  0  0
    0.6313    2.0954    0.0872 C   0  0  0  0  0  0  0  0  0  0  0  0
    1.9136    2.0107   -0.5440 N   0  0  0  0  0  0  0  0  0  0  0  0
    3.0323    1.3818    0.0389 C   0  0  0  0  0  0  0  0  0  0  0  0
    3.0684    1.3306    1.2988 O   0  0  0  0  0  0  0  0  0  0  0  0
    3.9586    0.5013   -0.7403 C   0  0  0  0  0  0  0  0  0  0  0  0
    5.4146    0.7314   -0.6405 C   0  0  0  0  0  0  0  0  0  0  0  0
    5.8837    1.3961    0.3275 O   0  0  0  0  0  0  0  0  0  0  0  0
    6.3235    0.5206   -1.7257 N   0  0  0  0  0  0  0  0  0  0  0  0
    7.5956   -0.0522   -1.3971 C   0  0  0  0  0  0  0  0  0  0  0  0
    7.7026   -1.4356   -1.4784 C   0  0  0  0  0  0  0  0  0  0  0  0
    8.4248   -2.1659   -0.5416 C   0  0  0  0  0  0  0  0  0  0  0  0
    9.1429   -1.5066    0.4491 C   0  0  0  0  0  0  0  0  0  0  0  0
    9.2412   -2.0259    1.7073 F   0  0  0  0  0  0  0  0  0  0  0  0
    9.3496   -0.1507    0.2240 C   0  0  0  0  0  0  0  0  0  0  0  0
    8.5270    0.5871   -0.6183 C   0  0  0  0  0  0  0  0  0  0  0  0
    3.6078   -0.9916   -0.4855 C   0  0  0  0  0  0  0  0  0  0  0  0
    3.4305   -0.3773   -1.8128 C   0  0  0  0  0  0  0  0  0  0  0  0
   -0.3496    2.8061   -0.5932 C   0  0  0  0  0  0  0  0  0  0  0  0
   -1.6740    2.3895   -0.6258 C   0  0  0  0  0  0  0  0  0  0  0  0
   -5.4156   -0.1697    0.4554 C   0  0  0  0  0  0  0  0  0  0  0  0
   -6.0434    0.4670   -0.6083 C   0  0  0  0  0  0  0  0  0  0  0  0
   -7.2354   -0.0074   -1.1406 C   0  0  0  0  0  0  0  0  0  0  0  0
   -7.9520    0.6787   -2.1095 O   0  0  0  0  0  0  0  0  0  0  0  0
   -7.3392    0.9565   -3.3484 C   0  0  0  0  0  0  0  0  0  0  0  0
  1  2  1  0
  2  3  1  0
  3  4  2  0
  4  5  1  0
  5  6  2  0
  6  7  1  0
  7  8  2  0
  8  9  1  0
  9 10  1  0
 10 11  1  0
 11 12  2  0
 12 13  1  0
 13 14  2  0
 14 15  1  0
 15 16  1  0
 16 17  2  0
 16 18  1  0
 18 19  1  0
 19 20  2  0
 19 21  1  0
 21 22  1  0
 22 23  2  0
 23 24  1  0
 24 25  2  0
 25 26  1  0
 25 27  1  0
 27 28  2  0
 18 29  1  0
 29 30  1  0
 14 31  1  0
 31 32  2  0
  9 33  2  0
 33 34  1  0
 34 35  2  0
 35 36  1  0
 36 37  1  0
 35  3  1  0
 33  5  1  0
 32 11  1  0
 30 18  1  0
 28 22  1  0
M  END
>  <zinc_id>  (424) 
ZINC000070466416

>  <smiles>  (424) 
COc1cc2nccc(Oc3ccc(NC(=O)C4(C(=O)Nc5ccc(F)cc5)CC4)cc3)c2cc1OC

$$$$

     RDKit          3D

 26 29  0  0  0  0  0  0  0  0999 V2000
   -3.9678   -0.6182    2.4250 O   0  0  0  0  0  0  0  0  0  0  0  0
   -3.4434   -0.5079    1.4061 C   0  0  0  0  0  0  0  0  0  0  0  0
   -4.0269    0.4829    0.4935 C   0  0  0  0  0  0  0  0  0  0  0  0
   -4.6879    1.6071    0.9763 C   0  0  0  0  0  0  0  0  0  0  0  0
   -5.0141    2.6599    0.1297 C   0  0  0  0  0  0  0  0  0  0  0  0
   -4.8136    2.5146   -1.2284 C   0  0  0  0  0  0  0  0  0  0  0  0
   -4.1050    1.4104   -1.6857 C   0  0  0  0  0  0  0  0  0  0  0  0
   -3.5260    0.5071   -0.8026 C   0  0  0  0  0  0  0  0  0  0  0  0
   -2.2936   -0.1917   -1.0877 C   0  0  0  0  0  0  0  0  0  0  0  0
   -1.6903    0.0423   -2.1648 O   0  0  0  0  0  0  0  0  0  0  0  0
   -1.5954   -1.0644   -0.1335 C   0  0  0  0  0  0  0  0  0  0  0  0
   -0.0378   -0.6410    0.0827 C   0  0  1  0  0  0  0  0  0  0  0  0
    0.4613   -2.2068    0.2821 C   0  0  0  0  0  0  0  0  0  0  0  0
    1.9881   -2.1240    0.2893 C   0  0  0  0  0  0  0  0  0  0  0  0
    2.3141   -0.5354   -0.0428 C   0  0  1  0  0  0  0  0  0  0  0  0
    3.8792   -0.8346   -0.3792 C   0  0  0  0  0  0  0  0  0  0  0  0
    4.5963   -0.6695    0.8037 C   0  0  0  0  0  0  0  0  0  0  0  0
    5.6531    0.2280    0.9195 C   0  0  0  0  0  0  0  0  0  0  0  0
    5.9046    1.1446   -0.0954 C   0  0  0  0  0  0  0  0  0  0  0  0
    6.2226    2.8400    0.2719 Cl  0  0  0  0  0  0  0  0  0  0  0  0
    5.4868    0.7198   -1.3454 C   0  0  0  0  0  0  0  0  0  0  0  0
    4.3801   -0.1170   -1.4393 C   0  0  0  0  0  0  0  0  0  0  0  0
    1.8164   -0.7189   -1.6128 C   0  0  0  0  0  0  0  0  0  0  0  0
    0.3023   -0.7059   -1.5371 C   0  0  0  0  0  0  0  0  0  0  0  0
   -2.2405   -1.2527    1.0196 C   0  0  0  0  0  0  0  0  0  0  0  0
   -1.5629   -1.9685    2.0108 O   0  0  0  0  0  0  0  0  0  0  0  0
  1  2  2  0
  2  3  1  0
  3  4  2  0
  4  5  1  0
  5  6  2  0
  6  7  1  0
  7  8  2  0
  8  9  1  0
  9 10  2  0
  9 11  1  0
 12 11  1  6
 12 13  1  0
 13 14  1  0
 14 15  1  0
 15 16  1  6
 16 17  2  0
 17 18  1  0
 18 19  2  0
 19 20  1  0
 19 21  1  0
 21 22  2  0
 15 23  1  0
 23 24  1  0
 11 25  2  0
 25 26  1  0
 25  2  1  0
  8  3  1  0
 24 12  1  0
 22 16  1  0
M  END
>  <zinc_id>  (425) 
ZINC000116473771

>  <smiles>  (425) 
O=C1C(O)=C([C@H]2CC[C@@H](c3ccc(Cl)cc3)CC2)C(=O)c2ccccc21

$$$$

     RDKit          3D

 24 27  0  0  0  0  0  0  0  0999 V2000
   -4.5050   -0.3927   -0.8456 O   0  0  0  0  0  0  0  0  0  0  0  0
   -4.4796    0.7496   -0.3464 C   0  0  0  0  0  0  0  0  0  0  0  0
   -5.4341    1.0685    0.6149 O   0  0  0  0  0  0  0  0  0  0  0  0
   -3.5478    1.8299   -0.7449 C   0  0  0  0  0  0  0  0  0  0  0  0
   -2.2107    1.9311    0.4928 S   0  0  0  0  0  0  0  0  0  0  0  0
   -1.9428    0.2536    1.0783 C   0  0  0  0  0  0  0  0  0  0  0  0
   -2.6504   -0.4255    2.0118 N   0  0  0  0  0  0  0  0  0  0  0  0
   -2.4630   -1.7264    1.7903 N   0  0  0  0  0  0  0  0  0  0  0  0
   -1.5812   -1.8856    0.7756 C   0  0  0  0  0  0  0  0  0  0  0  0
   -1.3106   -3.4314   -0.3252 Br  0  0  0  0  0  0  0  0  0  0  0  0
   -1.0444   -0.6501    0.6154 N   0  0  0  0  0  0  0  0  0  0  0  0
    0.0900   -0.3479   -0.2003 C   0  0  0  0  0  0  0  0  0  0  0  0
    0.1084    0.8064   -0.9705 C   0  0  0  0  0  0  0  0  0  0  0  0
    1.2899    1.4710   -1.2770 C   0  0  0  0  0  0  0  0  0  0  0  0
    2.4644    1.1164   -0.6211 C   0  0  0  0  0  0  0  0  0  0  0  0
    3.4314    2.1475   -0.1262 C   0  0  0  0  0  0  0  0  0  0  0  0
    4.7244    2.3631   -0.7949 C   0  0  0  0  0  0  0  0  0  0  0  0
    3.6031    3.4190   -0.8626 C   0  0  0  0  0  0  0  0  0  0  0  0
    2.4906   -0.1267   -0.0116 C   0  0  0  0  0  0  0  0  0  0  0  0
    3.7426   -0.6978    0.1816 C   0  0  0  0  0  0  0  0  0  0  0  0
    3.8022   -2.0585    0.4597 C   0  0  0  0  0  0  0  0  0  0  0  0
    2.6567   -2.6191    0.9806 C   0  0  0  0  0  0  0  0  0  0  0  0
    1.4439   -1.9453    1.0398 C   0  0  0  0  0  0  0  0  0  0  0  0
    1.3219   -0.8491    0.1950 C   0  0  0  0  0  0  0  0  0  0  0  0
  1  2  2  0
  2  3  1  0
  2  4  1  0
  4  5  1  0
  5  6  1  0
  6  7  2  0
  7  8  1  0
  8  9  2  0
  9 10  1  0
  9 11  1  0
 11 12  1  0
 12 13  2  0
 13 14  1  0
 14 15  2  0
 15 16  1  0
 16 17  1  0
 17 18  1  0
 15 19  1  0
 19 20  2  0
 20 21  1  0
 21 22  2  0
 22 23  1  0
 23 24  2  0
 11  6  1  0
 24 12  1  0
 18 16  1  0
 24 19  1  0
M  END
>  <zinc_id>  (426) 
ZINC000084757007

>  <smiles>  (426) 
O=C(O)CSc1nnc(Br)n1-c1ccc(C2CC2)c2ccccc12

$$$$

     RDKit          3D

 31 35  0  0  0  0  0  0  0  0999 V2000
    0.7601    0.5553   -2.0048 C   0  0  0  0  0  0  0  0  0  0  0  0
    0.8438    1.2443   -1.5696 C   0  0  0  0  0  0  0  0  0  0  0  0
    0.6176    0.6702   -0.0116 C   0  0  2  0  0  0  0  0  0  0  0  0
    1.6569   -0.5276   -0.2706 N   0  0  0  0  0  0  0  0  0  0  0  0
    2.9756    0.0041   -0.1398 C   0  0  0  0  0  0  0  0  0  0  0  0
    3.3053    1.2410   -0.5870 N   0  0  0  0  0  0  0  0  0  0  0  0
    4.4627    1.4168   -1.2247 C   0  0  0  0  0  0  0  0  0  0  0  0
    5.5369    0.7442   -0.7859 N   0  0  0  0  0  0  0  0  0  0  0  0
    5.3341   -0.2852    0.0574 C   0  0  0  0  0  0  0  0  0  0  0  0
    6.1950   -1.2013    0.5649 N   0  0  0  0  0  0  0  0  0  0  0  0
    5.4733   -2.2788    0.8897 C   0  0  0  0  0  0  0  0  0  0  0  0
    4.1683   -1.9695    0.7869 N   0  0  0  0  0  0  0  0  0  0  0  0
    4.0465   -0.7294    0.3348 C   0  0  0  0  0  0  0  0  0  0  0  0
   -0.6940   -0.1902   -0.5040 C   0  0  0  0  0  0  0  0  0  0  0  0
   -0.6874   -1.4743   -0.1564 N   0  0  0  0  0  0  0  0  0  0  0  0
   -1.8657   -2.1292   -0.1416 C   0  0  0  0  0  0  0  0  0  0  0  0
   -2.0432   -3.4191   -0.5536 C   0  0  0  0  0  0  0  0  0  0  0  0
   -3.2451   -4.0411   -0.2357 C   0  0  0  0  0  0  0  0  0  0  0  0
   -4.1564   -3.4242    0.6143 C   0  0  0  0  0  0  0  0  0  0  0  0
   -3.9909   -2.0910    0.9722 C   0  0  0  0  0  0  0  0  0  0  0  0
   -4.7169   -1.5235    1.9743 F   0  0  0  0  0  0  0  0  0  0  0  0
   -2.9231   -1.4460    0.3993 C   0  0  0  0  0  0  0  0  0  0  0  0
   -2.8934   -0.0672    0.3983 C   0  0  0  0  0  0  0  0  0  0  0  0
   -3.8085    0.5557    0.9877 O   0  0  0  0  0  0  0  0  0  0  0  0
   -1.7750    0.5241   -0.0879 N   0  0  0  0  0  0  0  0  0  0  0  0
   -1.7934    1.9517   -0.2259 C   0  0  0  0  0  0  0  0  0  0  0  0
   -1.1489    2.7641    0.6857 C   0  0  0  0  0  0  0  0  0  0  0  0
   -1.6011    4.0443    0.8828 C   0  0  0  0  0  0  0  0  0  0  0  0
   -2.5316    4.6040    0.0283 C   0  0  0  0  0  0  0  0  0  0  0  0
   -2.9489    3.8934   -1.0706 C   0  0  0  0  0  0  0  0  0  0  0  0
   -2.5525    2.5844   -1.2031 C   0  0  0  0  0  0  0  0  0  0  0  0
  1  2  1  0
  3  2  1  6
  3  4  1  0
  4  5  1  0
  5  6  2  0
  6  7  1  0
  7  8  2  0
  8  9  1  0
  9 10  1  0
 10 11  1  0
 11 12  2  0
 12 13  1  0
  3 14  1  0
 14 15  2  0
 15 16  1  0
 16 17  2  0
 17 18  1  0
 18 19  2  0
 19 20  1  0
 20 21  1  0
 20 22  2  0
 22 23  1  0
 23 24  2  0
 23 25  1  0
 25 26  1  0
 26 27  2  0
 27 28  1  0
 28 29  2  0
 29 30  1  0
 30 31  2  0
 13  5  1  0
 25 14  1  0
 31 26  1  0
 13  9  2  0
 22 16  1  0
M  END
>  <zinc_id>  (427) 
ZINC000013986658

>  <smiles>  (427) 
CC[C@H](Nc1ncnc2[nH]cnc12)c1nc2cccc(F)c2c(=O)n1-c1ccccc1

$$$$

     RDKit          3D

 21 21  0  0  0  0  0  0  0  0999 V2000
   -5.2098   -0.2505    2.7281 C   0  0  0  0  0  0  0  0  0  0  0  0
   -5.3354   -0.7936    1.3821 N   0  0  0  0  0  0  0  0  0  0  0  0
   -4.3469   -0.5323    0.3832 C   0  0  0  0  0  0  0  0  0  0  0  0
   -4.1815    0.7192    0.0180 C   0  0  0  0  0  0  0  0  0  0  0  0
   -5.2890    1.6260   -0.0259 N   0  0  0  0  0  0  0  0  0  0  0  0
   -5.0255    2.7743   -0.4646 O   0  0  0  0  0  0  0  0  0  0  0  0
   -6.5816    1.1892   -0.2616 O   0  0  0  0  0  0  0  0  0  0  0  0
   -3.5614   -1.6002   -0.1574 N   0  0  0  0  0  0  0  0  0  0  0  0
   -2.1944   -1.3539   -0.5792 C   0  0  0  0  0  0  0  0  0  0  0  0
   -1.2909   -1.9470    0.4928 C   0  0  0  0  0  0  0  0  0  0  0  0
    0.3506   -2.2044   -0.2076 S   0  0  0  0  0  0  0  0  0  0  0  0
    1.1825   -0.5994   -0.3378 C   0  0  0  0  0  0  0  0  0  0  0  0
    2.6459   -0.8624   -0.2087 C   0  0  0  0  0  0  0  0  0  0  0  0
    3.4036   -1.8926   -0.6937 C   0  0  0  0  0  0  0  0  0  0  0  0
    4.7211   -1.5005   -0.4923 C   0  0  0  0  0  0  0  0  0  0  0  0
    4.6907   -0.3371    0.2652 C   0  0  0  0  0  0  0  0  0  0  0  0
    5.8451    0.5878    0.4909 C   0  0  0  0  0  0  0  0  0  0  0  0
    5.3733    1.9473    0.4318 N   0  0  0  0  0  0  0  0  0  0  0  0
    5.1291    2.2829   -0.9515 C   0  0  0  0  0  0  0  0  0  0  0  0
    6.2364    2.8879    1.0976 C   0  0  0  0  0  0  0  0  0  0  0  0
    3.4379   -0.1406    0.5521 O   0  0  0  0  0  0  0  0  0  0  0  0
  1  2  1  0
  2  3  1  0
  3  4  2  0
  4  5  1  0
  5  6  2  0
  5  7  1  0
  3  8  1  0
  8  9  1  0
  9 10  1  0
 10 11  1  0
 11 12  1  0
 12 13  1  0
 13 14  2  0
 14 15  1  0
 15 16  2  0
 16 17  1  0
 17 18  1  0
 18 19  1  0
 18 20  1  0
 16 21  1  0
 21 13  1  0
M  CHG  2   5   1   7  -1
M  END
>  <zinc_id>  (428) 
ZINC000001530728

>  <smiles>  (428) 
CN/C(=C\[N+](=O)[O-])NCCSCc1ccc(CN(C)C)o1

$$$$

     RDKit          3D

 28 31  0  0  0  0  0  0  0  0999 V2000
   -4.1174    1.8249    1.5613 C   0  0  0  0  0  0  0  0  0  0  0  0
   -3.8732    1.1218    0.6117 C   0  0  0  0  0  0  0  0  0  0  0  0
   -3.6779    0.0079   -0.3573 C   0  0  2  0  0  0  0  0  0  0  0  0
   -4.5217    0.2927   -1.3517 O   0  0  0  0  0  0  0  0  0  0  0  0
   -4.9761   -0.3526   -2.4504 C   0  0  0  0  0  0  0  0  0  0  0  0
   -6.3204   -0.1380   -3.0757 C   0  0  0  0  0  0  0  0  0  0  0  0
   -4.2432   -1.3347   -2.7766 O   0  0  0  0  0  0  0  0  0  0  0  0
   -3.9587   -1.2516    0.4645 C   0  0  0  0  0  0  0  0  0  0  0  0
   -2.7407   -1.4062    1.3729 C   0  0  0  0  0  0  0  0  0  0  0  0
   -1.9035   -0.0481    1.0154 C   0  0  1  0  0  0  0  0  0  0  0  0
   -0.4173   -0.8732    0.9303 C   0  0  2  0  0  0  0  0  0  0  0  0
   -0.0063   -0.4168    2.4212 C   0  0  0  0  0  0  0  0  0  0  0  0
    1.1430    0.4458    2.4755 C   0  0  0  0  0  0  0  0  0  0  0  0
    2.2581    0.2586    1.5640 C   0  0  0  0  0  0  0  0  0  0  0  0
    3.5364    0.3133    1.8100 C   0  0  0  0  0  0  0  0  0  0  0  0
    4.4048    1.1462    0.6862 C   0  0  1  0  0  0  0  0  0  0  0  0
    5.7046    0.3501    1.0412 O   0  0  0  0  0  0  0  0  0  0  0  0
    6.5595    0.2275   -0.0288 C   0  0  0  0  0  0  0  0  0  0  0  0
    7.9826   -0.1855    0.1543 C   0  0  0  0  0  0  0  0  0  0  0  0
    6.0337   -0.0999   -1.1352 O   0  0  0  0  0  0  0  0  0  0  0  0
    3.9975    0.0437   -0.5090 C   0  0  0  0  0  0  0  0  0  0  0  0
    2.5851    0.5841   -0.7470 C   0  0  0  0  0  0  0  0  0  0  0  0
    1.7996   -0.4905    0.2114 C   0  0  2  0  0  0  0  0  0  0  0  0
    0.3611    0.4265    0.1861 C   0  0  1  0  0  0  0  0  0  0  0  0
   -0.0357   -0.0456   -1.3063 C   0  0  0  0  0  0  0  0  0  0  0  0
   -1.4121    0.6414   -1.3573 C   0  0  0  0  0  0  0  0  0  0  0  0
   -2.2497   -0.2645   -0.5704 C   0  0  2  0  0  0  0  0  0  0  0  0
   -1.9119   -1.7263   -0.8404 C   0  0  0  0  0  0  0  0  0  0  0  0
  1  2  3  0
  3  2  1  1
  3  4  1  0
  4  5  1  0
  5  6  1  0
  5  7  2  0
  3  8  1  0
  8  9  1  0
 10  9  1  1
 10 11  1  0
 11 12  1  1
 12 13  1  0
 13 14  1  0
 14 15  2  0
 15 16  1  0
 16 17  1  1
 17 18  1  0
 18 19  1  0
 18 20  2  0
 16 21  1  0
 21 22  1  0
 23 22  1  6
 23 24  1  0
 24 25  1  6
 25 26  1  0
 26 27  1  0
 27 28  1  6
 27  3  1  0
 27 10  1  0
 24 11  1  0
 23 14  1  0
M  END
>  <zinc_id>  (429) 
ZINC000003876023

>  <smiles>  (429) 
C#C[C@]1(OC(C)=O)CC[C@H]2[C@@H]3CCC4=C[C@@H](OC(C)=O)CC[C@@H]4[C@H]3CC[C@@]21C

$$$$

     RDKit          3D

 32 36  0  0  0  0  0  0  0  0999 V2000
   -4.6861    4.6406   -0.3838 C   0  0  0  0  0  0  0  0  0  0  0  0
   -5.7626    3.7979    0.2517 C   0  0  0  0  0  0  0  0  0  0  0  0
   -5.5076    2.3218    0.1305 C   0  0  0  0  0  0  0  0  0  0  0  0
   -4.5862    1.9773   -1.0229 C   0  0  0  0  0  0  0  0  0  0  0  0
   -3.8715    0.7120   -0.6897 C   0  0  0  0  0  0  0  0  0  0  0  0
   -4.2273   -0.4365   -1.1791 N   0  0  0  0  0  0  0  0  0  0  0  0
   -3.7729   -1.4427   -0.2460 C   0  0  0  0  0  0  0  0  0  0  0  0
   -4.8097   -1.7986    0.7842 C   0  0  0  0  0  0  0  0  0  0  0  0
   -4.3881   -3.1811    1.2054 C   0  0  0  0  0  0  0  0  0  0  0  0
   -3.8161   -3.8463   -0.0408 C   0  0  0  0  0  0  0  0  0  0  0  0
   -3.4265   -2.7172   -0.9771 C   0  0  0  0  0  0  0  0  0  0  0  0
   -2.5655   -0.8148    0.3734 C   0  0  0  0  0  0  0  0  0  0  0  0
   -1.8285   -1.2848    1.2830 O   0  0  0  0  0  0  0  0  0  0  0  0
   -2.5845    0.5389   -0.0942 N   0  0  0  0  0  0  0  0  0  0  0  0
   -1.7364    1.6185    0.3428 C   0  0  0  0  0  0  0  0  0  0  0  0
   -0.2866    1.2876    0.2147 C   0  0  0  0  0  0  0  0  0  0  0  0
    0.6119    1.4821    1.2536 C   0  0  0  0  0  0  0  0  0  0  0  0
    1.5835    0.5151    1.4815 C   0  0  0  0  0  0  0  0  0  0  0  0
    2.1019   -0.1767    0.3940 C   0  0  0  0  0  0  0  0  0  0  0  0
    3.2061   -1.1298    0.5561 C   0  0  0  0  0  0  0  0  0  0  0  0
    3.0215   -2.4420    0.1374 C   0  0  0  0  0  0  0  0  0  0  0  0
    4.1109   -3.2375   -0.1976 C   0  0  0  0  0  0  0  0  0  0  0  0
    5.3335   -2.8758    0.3556 C   0  0  0  0  0  0  0  0  0  0  0  0
    5.4414   -1.6880    1.0685 C   0  0  0  0  0  0  0  0  0  0  0  0
    4.4972   -0.7187    0.8027 C   0  0  0  0  0  0  0  0  0  0  0  0
    4.8086    0.7102    0.7620 C   0  0  0  0  0  0  0  0  0  0  0  0
    4.2435    1.6346   -0.0518 N   0  0  0  0  0  0  0  0  0  0  0  0
    5.1496    2.5827   -0.2759 N   0  0  0  0  0  0  0  0  0  0  0  0
    6.2728    2.2986    0.3537 N   0  0  0  0  0  0  0  0  0  0  0  0
    5.9729    1.2802    1.1556 N   0  0  0  0  0  0  0  0  0  0  0  0
    1.3156   -0.1925   -0.7492 C   0  0  0  0  0  0  0  0  0  0  0  0
    0.1852    0.5850   -0.8848 C   0  0  0  0  0  0  0  0  0  0  0  0
  1  2  1  0
  2  3  1  0
  3  4  1  0
  4  5  1  0
  5  6  2  0
  6  7  1  0
  7  8  1  0
  8  9  1  0
  9 10  1  0
 10 11  1  0
  7 12  1  0
 12 13  2  0
 12 14  1  0
 14 15  1  0
 15 16  1  0
 16 17  2  0
 17 18  1  0
 18 19  2  0
 19 20  1  0
 20 21  2  0
 21 22  1  0
 22 23  2  0
 23 24  1  0
 24 25  2  0
 25 26  1  0
 26 27  1  0
 27 28  2  0
 28 29  1  0
 29 30  1  0
 19 31  1  0
 31 32  2  0
 14  5  1  0
 32 16  1  0
 11  7  1  0
 25 20  1  0
 30 26  2  0
M  END
>  <zinc_id>  (430) 
ZINC000003872931

>  <smiles>  (430) 
CCCCC1=NC2(CCCC2)C(=O)N1Cc1ccc(-c2ccccc2-c2nn[nH]n2)cc1

$$$$

     RDKit          3D

 22 26  0  0  0  0  0  0  0  0999 V2000
   -3.5131   -2.2236    0.7876 C   0  0  0  0  0  0  0  0  0  0  0  0
   -2.7080   -1.1620    0.9637 N   0  0  0  0  0  0  0  0  0  0  0  0
   -1.6401   -1.4291    1.8169 C   0  0  0  0  0  0  0  0  0  0  0  0
   -0.5865   -0.3918    1.9803 C   0  0  0  0  0  0  0  0  0  0  0  0
   -0.3764    0.3117    0.7195 C   0  0  1  0  0  0  0  0  0  0  0  0
    0.6523   -0.1853   -0.1689 C   0  0  0  0  0  0  0  0  0  0  0  0
    1.8721    0.2393    0.1755 C   0  0  0  0  0  0  0  0  0  0  0  0
    2.9295   -0.4825   -0.3765 C   0  0  0  0  0  0  0  0  0  0  0  0
    4.1727   -0.2999    0.1912 O   0  0  0  0  0  0  0  0  0  0  0  0
    2.6317   -1.5010   -1.2786 C   0  0  0  0  0  0  0  0  0  0  0  0
    1.3145   -1.8681   -1.5575 C   0  0  0  0  0  0  0  0  0  0  0  0
    0.2388   -1.1865   -0.9964 C   0  0  0  0  0  0  0  0  0  0  0  0
   -0.9267   -1.8972   -0.3801 C   0  0  0  0  0  0  0  0  0  0  0  0
   -2.2160   -0.8923   -0.5074 C   0  0  2  0  0  0  0  0  0  0  0  0
   -1.5362    0.5339   -0.0873 C   0  0  1  0  0  0  0  0  0  0  0  0
   -2.5148    1.2515    0.5819 O   0  0  0  0  0  0  0  0  0  0  0  0
   -1.3838    1.1559   -1.4372 C   0  0  0  0  0  0  0  0  0  0  0  0
   -0.6646    2.4892   -1.2639 C   0  0  0  0  0  0  0  0  0  0  0  0
    0.5843    2.0894   -0.5502 C   0  0  0  0  0  0  0  0  0  0  0  0
    1.6408    2.5619   -0.8422 O   0  0  0  0  0  0  0  0  0  0  0  0
    0.3176    1.7609    1.0146 C   0  0  2  0  0  0  0  0  0  0  0  0
    1.7119    1.1256    1.2149 O   0  0  0  0  0  0  0  0  0  0  0  0
  1  2  1  0
  2  3  1  0
  3  4  1  0
  5  4  1  1
  5  6  1  0
  6  7  2  0
  7  8  1  0
  8  9  1  0
  8 10  2  0
 10 11  1  0
 11 12  2  0
 12 13  1  0
 14 13  1  1
 14 15  1  0
 15 16  1  1
 15 17  1  0
 17 18  1  0
 18 19  1  0
 19 20  2  0
 21 19  1  6
 21 22  1  0
 14  2  1  0
 15  5  1  0
 21  5  1  0
 12  6  1  0
 22  7  1  0
M  END
>  <zinc_id>  (431) 
ZINC000003875483

>  <smiles>  (431) 
CN1CC[C@]23c4c5ccc(O)c4O[C@H]2C(=O)CC[C@@]3(O)[C@H]1C5

$$$$

     RDKit          3D

 49 53  0  0  0  0  0  0  0  0999 V2000
   -6.2429   -3.4971   -1.6621 C   0  0  0  0  0  0  0  0  0  0  0  0
   -6.3468   -3.8570   -0.6353 C   0  0  0  0  0  0  0  0  0  0  0  0
   -7.4833   -4.8256   -0.4644 C   0  0  0  0  0  0  0  0  0  0  0  0
   -5.0802   -4.6175   -0.2545 C   0  0  0  0  0  0  0  0  0  0  0  0
   -6.4661   -2.7798    0.3523 N   0  0  0  0  0  0  0  0  0  0  0  0
   -5.8074   -1.6024    0.0299 C   0  0  0  0  0  0  0  0  0  0  0  0
   -5.4920   -1.3551   -1.1232 O   0  0  0  0  0  0  0  0  0  0  0  0
   -5.2415   -0.6759    1.2491 C   0  0  2  0  0  0  0  0  0  0  0  0
   -6.4467    0.3559    1.0046 C   0  0  0  0  0  0  0  0  0  0  0  0
   -6.1977    1.9166    0.9172 C   0  0  2  0  0  0  0  0  0  0  0  0
   -6.6364    1.8328   -0.6574 C   0  0  0  0  0  0  0  0  0  0  0  0
   -6.3619    3.0142   -1.4054 C   0  0  0  0  0  0  0  0  0  0  0  0
   -4.8417    3.0766   -1.5504 C   0  0  0  0  0  0  0  0  0  0  0  0
   -4.4345    3.3132   -0.1594 C   0  0  0  0  0  0  0  0  0  0  0  0
   -4.5048    1.9607    0.7258 C   0  0  2  0  0  0  0  0  0  0  0  0
   -4.5233    0.8946   -0.4991 C   0  0  0  0  0  0  0  0  0  0  0  0
   -4.0779   -0.0857    0.3564 N   0  0  0  0  0  0  0  0  0  0  0  0
   -2.9990    0.2175    1.2133 C   0  0  0  0  0  0  0  0  0  0  0  0
   -2.1084   -1.1279    1.4848 C   0  0  1  0  0  0  0  0  0  0  0  0
   -2.3252   -1.7127    0.1063 O   0  0  0  0  0  0  0  0  0  0  0  0
   -0.6608   -0.2738    1.0796 C   0  0  2  0  0  0  0  0  0  0  0  0
   -1.1261    0.1978   -0.4097 C   0  0  0  0  0  0  0  0  0  0  0  0
   -0.7607    1.6428   -0.4539 C   0  0  0  0  0  0  0  0  0  0  0  0
    0.0929    2.2398    0.4338 C   0  0  0  0  0  0  0  0  0  0  0  0
    0.7194    3.4172    0.0410 C   0  0  0  0  0  0  0  0  0  0  0  0
    0.0663    4.1554   -0.9390 C   0  0  0  0  0  0  0  0  0  0  0  0
   -0.8178    3.5905   -1.8180 C   0  0  0  0  0  0  0  0  0  0  0  0
   -1.0293    2.2279   -1.6742 C   0  0  0  0  0  0  0  0  0  0  0  0
    0.0659   -1.5570    0.5624 N   0  0  0  0  0  0  0  0  0  0  0  0
    1.2693   -1.0606   -0.0705 C   0  0  0  0  0  0  0  0  0  0  0  0
    0.9404   -0.8165   -1.2657 O   0  0  0  0  0  0  0  0  0  0  0  0
    2.5314   -2.0590    0.1073 C   0  0  2  0  0  0  0  0  0  0  0  0
    3.0822   -1.2111    1.4155 C   0  0  0  0  0  0  0  0  0  0  0  0
    2.2991   -1.6714    2.5578 C   0  0  0  0  0  0  0  0  0  0  0  0
    2.2276   -0.8555    3.7061 N   0  0  0  0  0  0  0  0  0  0  0  0
    2.2593   -2.9218    2.7641 O   0  0  0  0  0  0  0  0  0  0  0  0
    3.4298   -1.3225   -0.9627 N   0  0  0  0  0  0  0  0  0  0  0  0
    4.3648   -0.3777   -0.5990 C   0  0  0  0  0  0  0  0  0  0  0  0
    3.8608    0.4525    0.2225 O   0  0  0  0  0  0  0  0  0  0  0  0
    5.8038   -0.3494   -0.9355 C   0  0  0  0  0  0  0  0  0  0  0  0
    6.5581   -1.2239   -0.1566 C   0  0  0  0  0  0  0  0  0  0  0  0
    7.6476   -0.8128    0.6026 C   0  0  0  0  0  0  0  0  0  0  0  0
    8.3148    0.3057    0.1804 C   0  0  0  0  0  0  0  0  0  0  0  0
    9.6840    0.4029    0.4010 C   0  0  0  0  0  0  0  0  0  0  0  0
   10.4643    1.2764   -0.3445 C   0  0  0  0  0  0  0  0  0  0  0  0
    9.8093    2.1352   -1.1825 C   0  0  0  0  0  0  0  0  0  0  0  0
    8.4477    2.0703   -1.3676 C   0  0  0  0  0  0  0  0  0  0  0  0
    7.6734    1.1007   -0.7401 C   0  0  0  0  0  0  0  0  0  0  0  0
    6.4001    0.8523   -1.1413 N   0  0  0  0  0  0  0  0  0  0  0  0
  1  2  1  0
  2  3  1  0
  2  4  1  0
  2  5  1  0
  5  6  1  0
  6  7  2  0
  8  6  1  6
  8  9  1  0
 10  9  1  1
 10 11  1  0
 11 12  1  0
 12 13  1  0
 13 14  1  0
 15 14  1  6
 15 16  1  0
 16 17  1  0
 17 18  1  0
 19 18  1  6
 19 20  1  0
 19 21  1  0
 21 22  1  6
 22 23  1  0
 23 24  2  0
 24 25  1  0
 25 26  2  0
 26 27  1  0
 27 28  2  0
 21 29  1  0
 29 30  1  0
 30 31  2  0
 32 30  1  6
 32 33  1  0
 33 34  1  0
 34 35  1  0
 34 36  2  0
 32 37  1  0
 37 38  1  0
 38 39  2  0
 38 40  1  0
 40 41  2  0
 41 42  1  0
 42 43  2  0
 43 44  1  0
 44 45  2  0
 45 46  1  0
 46 47  2  0
 47 48  1  0
 48 49  2  0
 17  8  1  0
 28 23  1  0
 49 40  1  0
 15 10  1  0
 48 43  1  0
M  END
>  <zinc_id>  (432) 
ZINC000003914596

>  <smiles>  (432) 
CC(C)(C)NC(=O)[C@@H]1C[C@@H]2CCCC[C@@H]2CN1C[C@@H](O)[C@H](Cc1ccccc1)NC(=O)[C@H](CC(N)=O)NC(=O)c1ccc2ccccc2n1

$$$$

     RDKit          3D

 27 29  0  0  0  0  0  0  0  0999 V2000
   -4.9813   -2.9790    0.8015 C   0  0  0  0  0  0  0  0  0  0  0  0
   -4.9314   -1.4488    1.4256 C   0  0  1  0  0  0  0  0  0  0  0  0
   -3.7920   -1.8163    2.3623 O   0  0  0  0  0  0  0  0  0  0  0  0
   -3.8683   -0.9301    0.1652 C   0  0  1  0  0  0  0  0  0  0  0  0
   -4.6399    0.4528   -0.0249 C   0  0  0  0  0  0  0  0  0  0  0  0
   -5.8011    0.8115   -0.1214 O   0  0  0  0  0  0  0  0  0  0  0  0
   -3.2803    1.0047   -0.1785 N   0  0  0  0  0  0  0  0  0  0  0  0
   -2.4876    0.4114   -1.2253 C   0  0  0  0  0  0  0  0  0  0  0  0
   -2.6372    0.5981   -2.6854 C   0  0  0  0  0  0  0  0  0  0  0  0
   -2.5326   -0.4312   -3.3532 O   0  0  0  0  0  0  0  0  0  0  0  0
   -2.9284    1.8172   -3.2547 O   0  0  0  0  0  0  0  0  0  0  0  0
   -1.3399    0.3327   -0.7397 C   0  0  0  0  0  0  0  0  0  0  0  0
    0.2202    0.7424   -1.4656 S   0  0  0  0  0  0  0  0  0  0  0  0
    1.5489   -0.4930   -0.8887 C   0  0  2  0  0  0  0  0  0  0  0  0
    1.4422   -0.0941    0.6329 C   0  0  0  0  0  0  0  0  0  0  0  0
    2.6525    0.2317    1.1367 N   0  0  0  0  0  0  0  0  0  0  0  0
    3.7287   -0.0293    0.0135 C   0  0  2  0  0  0  0  0  0  0  0  0
    4.3626    1.4907    0.2154 C   0  0  0  0  0  0  0  0  0  0  0  0
    5.3535    1.3297    1.2603 N   0  0  0  0  0  0  0  0  0  0  0  0
    6.5906    0.3420    0.5960 S   0  0  0  0  0  0  0  0  0  0  0  0
    6.1041   -1.2857    0.7392 N   0  0  0  0  0  0  0  0  0  0  0  0
    6.6748    0.6996   -0.8723 O   0  0  0  0  0  0  0  0  0  0  0  0
    7.8840    0.6532    1.2882 O   0  0  0  0  0  0  0  0  0  0  0  0
    2.7297    0.5261   -1.1775 C   0  0  0  0  0  0  0  0  0  0  0  0
   -1.3823   -0.2922    0.7175 C   0  0  2  0  0  0  0  0  0  0  0  0
   -1.6999   -1.8156    0.1951 C   0  0  0  0  0  0  0  0  0  0  0  0
   -2.9896    0.1716    1.1049 C   0  0  2  0  0  0  0  0  0  0  0  0
  2  1  1  6
  2  3  1  0
  2  4  1  0
  4  5  1  6
  5  6  2  0
  5  7  1  0
  7  8  1  0
  8  9  1  0
  9 10  2  0
  9 11  1  0
  8 12  2  0
 12 13  1  0
 14 13  1  6
 14 15  1  0
 15 16  1  0
 16 17  1  0
 17 18  1  1
 18 19  1  0
 19 20  1  0
 20 21  1  0
 20 22  2  0
 20 23  2  0
 17 24  1  0
 12 25  1  0
 25 26  1  6
 25 27  1  0
 27  4  1  0
 27  7  1  6
 24 14  1  0
M  END
>  <zinc_id>  (433) 
ZINC000003922770

>  <smiles>  (433) 
C[C@@H](O)[C@H]1C(=O)N2C(C(=O)O)=C(S[C@@H]3CN[C@H](CNS(N)(=O)=O)C3)[C@H](C)[C@H]12

$$$$

     RDKit          3D

 27 30  0  0  0  0  0  0  0  0999 V2000
    5.2700    2.0564   -0.5873 N   0  0  0  0  0  0  0  0  0  0  0  0
    4.5722    0.8527    0.2017 C   0  0  2  0  0  0  0  0  0  0  0  0
    5.6455   -0.2502   -0.4456 C   0  0  0  0  0  0  0  0  0  0  0  0
    5.4110   -1.5109    0.3550 C   0  0  0  0  0  0  0  0  0  0  0  0
    4.0892   -1.4765    1.0872 C   0  0  0  0  0  0  0  0  0  0  0  0
    2.9143   -1.5977    0.1519 C   0  0  0  0  0  0  0  0  0  0  0  0
    2.5675   -0.3181   -0.4238 N   0  0  0  0  0  0  0  0  0  0  0  0
    1.2975    0.2050   -0.0548 C   0  0  0  0  0  0  0  0  0  0  0  0
    0.9974    1.5108   -0.3436 C   0  0  0  0  0  0  0  0  0  0  0  0
    1.7201    2.2006   -1.2596 F   0  0  0  0  0  0  0  0  0  0  0  0
   -0.1975    2.0069    0.1548 C   0  0  0  0  0  0  0  0  0  0  0  0
   -1.2092    1.1183    0.4977 C   0  0  0  0  0  0  0  0  0  0  0  0
   -2.5394    1.5183    0.5262 C   0  0  0  0  0  0  0  0  0  0  0  0
   -2.7271    2.7625    0.6164 O   0  0  0  0  0  0  0  0  0  0  0  0
   -3.5655    0.6652    0.1571 C   0  0  0  0  0  0  0  0  0  0  0  0
   -4.8843    1.2077   -0.0804 C   0  0  0  0  0  0  0  0  0  0  0  0
   -5.7593    0.4440   -0.5357 O   0  0  0  0  0  0  0  0  0  0  0  0
   -5.1303    2.5571    0.0281 O   0  0  0  0  0  0  0  0  0  0  0  0
   -3.2886   -0.6756    0.1573 C   0  0  0  0  0  0  0  0  0  0  0  0
   -2.0205   -1.1147    0.3454 N   0  0  0  0  0  0  0  0  0  0  0  0
   -1.6870   -2.5208    0.1822 C   0  0  0  0  0  0  0  0  0  0  0  0
   -2.5712   -3.4034   -0.6145 C   0  0  0  0  0  0  0  0  0  0  0  0
   -2.4177   -3.5740    0.9114 C   0  0  0  0  0  0  0  0  0  0  0  0
   -0.9960   -0.2498    0.5421 C   0  0  0  0  0  0  0  0  0  0  0  0
    0.3165   -0.6640    0.3870 C   0  0  0  0  0  0  0  0  0  0  0  0
    0.6963   -2.3497    0.6650 Cl  0  0  0  0  0  0  0  0  0  0  0  0
    3.4963    0.6000   -1.0494 C   0  0  0  0  0  0  0  0  0  0  0  0
  2  1  1  6
  2  3  1  0
  3  4  1  0
  4  5  1  0
  5  6  1  0
  6  7  1  0
  7  8  1  0
  8  9  2  0
  9 10  1  0
  9 11  1  0
 11 12  2  0
 12 13  1  0
 13 14  2  0
 13 15  1  0
 15 16  1  0
 16 17  2  0
 16 18  1  0
 15 19  2  0
 19 20  1  0
 20 21  1  0
 21 22  1  0
 22 23  1  0
 20 24  1  0
 24 25  2  0
 25 26  1  0
  7 27  1  0
 27  2  1  0
 25  8  1  0
 24 12  1  0
 23 21  1  0
M  END
>  <zinc_id>  (434) 
ZINC000003787097

>  <smiles>  (434) 
N[C@@H]1CCCCN(c2c(F)cc3c(=O)c(C(=O)O)cn(C4CC4)c3c2Cl)C1

$$$$

     RDKit          3D

 31 34  0  0  0  0  0  0  0  0999 V2000
   -7.1922   -1.2897   -1.7495 C   0  0  0  0  0  0  0  0  0  0  0  0
   -6.1018   -0.8710   -0.9404 O   0  0  0  0  0  0  0  0  0  0  0  0
   -6.2316    0.3271   -0.2449 C   0  0  0  0  0  0  0  0  0  0  0  0
   -7.2341    1.0574   -0.4545 O   0  0  0  0  0  0  0  0  0  0  0  0
   -5.1929    0.6833    0.6744 N   0  0  0  0  0  0  0  0  0  0  0  0
   -5.4226    1.6505    1.7156 C   0  0  0  0  0  0  0  0  0  0  0  0
   -3.8524    0.2225    0.4746 C   0  0  0  0  0  0  0  0  0  0  0  0
   -3.2007   -0.4374    1.5075 C   0  0  0  0  0  0  0  0  0  0  0  0
   -3.9592   -1.1247    2.5026 N   0  0  0  0  0  0  0  0  0  0  0  0
   -1.8490   -0.3799    1.5759 N   0  0  0  0  0  0  0  0  0  0  0  0
   -1.1287    0.1198    0.5604 C   0  0  0  0  0  0  0  0  0  0  0  0
    0.3053   -0.1538    0.4170 C   0  0  0  0  0  0  0  0  0  0  0  0
    1.2595    0.6206    0.9760 N   0  0  0  0  0  0  0  0  0  0  0  0
    2.4526    0.1500    0.6147 N   0  0  0  0  0  0  0  0  0  0  0  0
    3.6402    0.1515    1.4540 C   0  0  0  0  0  0  0  0  0  0  0  0
    4.8768    0.0811    0.6144 C   0  0  0  0  0  0  0  0  0  0  0  0
    5.8740   -0.8555    0.8582 C   0  0  0  0  0  0  0  0  0  0  0  0
    7.2197   -0.5099    0.8570 C   0  0  0  0  0  0  0  0  0  0  0  0
    7.6100    0.7401    0.3933 C   0  0  0  0  0  0  0  0  0  0  0  0
    6.6342    1.4714   -0.2726 C   0  0  0  0  0  0  0  0  0  0  0  0
    5.2842    1.2170   -0.0731 C   0  0  0  0  0  0  0  0  0  0  0  0
    4.3620    2.1243   -0.4700 F   0  0  0  0  0  0  0  0  0  0  0  0
    2.2544   -0.7219   -0.4020 C   0  0  0  0  0  0  0  0  0  0  0  0
    3.0759   -1.1718   -1.3571 N   0  0  0  0  0  0  0  0  0  0  0  0
    2.5740   -1.5653   -2.5522 C   0  0  0  0  0  0  0  0  0  0  0  0
    1.2385   -1.9270   -2.6708 C   0  0  0  0  0  0  0  0  0  0  0  0
    0.3715   -1.5449   -1.6546 C   0  0  0  0  0  0  0  0  0  0  0  0
    0.9004   -1.0049   -0.5056 C   0  0  0  0  0  0  0  0  0  0  0  0
   -1.7479    0.8770   -0.3764 N   0  0  0  0  0  0  0  0  0  0  0  0
   -3.0984    0.9306   -0.4491 C   0  0  0  0  0  0  0  0  0  0  0  0
   -3.7215    1.1333   -1.7229 N   0  0  0  0  0  0  0  0  0  0  0  0
  1  2  1  0
  2  3  1  0
  3  4  2  0
  3  5  1  0
  5  6  1  0
  5  7  1  0
  7  8  2  0
  8  9  1  0
  8 10  1  0
 10 11  2  0
 11 12  1  0
 12 13  2  0
 13 14  1  0
 14 15  1  0
 15 16  1  0
 16 17  2  0
 17 18  1  0
 18 19  2  0
 19 20  1  0
 20 21  2  0
 21 22  1  0
 14 23  1  0
 23 24  2  0
 24 25  1  0
 25 26  2  0
 26 27  1  0
 27 28  2  0
 11 29  1  0
 29 30  2  0
 30 31  1  0
 30  7  1  0
 28 12  1  0
 21 16  1  0
 28 23  1  0
M  END
>  <zinc_id>  (435) 
ZINC000003819392

>  <smiles>  (435) 
COC(=O)N(C)c1c(N)nc(-c2nn(Cc3ccccc3F)c3ncccc23)nc1N

$$$$

     RDKit          3D

 30 31  0  0  0  0  0  0  0  0999 V2000
   -5.2529   -1.8092    3.6584 C   0  0  0  0  0  0  0  0  0  0  0  0
   -4.4859   -2.6731    2.7039 C   0  0  0  0  0  0  0  0  0  0  0  0
   -3.2520   -2.0790    2.3186 O   0  0  0  0  0  0  0  0  0  0  0  0
   -2.8032   -0.9553    3.0478 C   0  0  0  0  0  0  0  0  0  0  0  0
   -3.6949   -0.1503    3.3165 O   0  0  0  0  0  0  0  0  0  0  0  0
   -1.4042   -0.3839    2.5055 C   0  0  2  0  0  0  0  0  0  0  0  0
   -1.3686    0.8622    3.5652 C   0  0  0  0  0  0  0  0  0  0  0  0
   -2.1294    0.4903    1.3372 C   0  0  0  0  0  0  0  0  0  0  0  0
   -0.9520    0.6757    0.2161 C   0  0  1  0  0  0  0  0  0  0  0  0
   -0.2653   -0.7960    0.4570 C   0  0  0  0  0  0  0  0  0  0  0  0
    1.1637   -0.4831    0.6372 C   0  0  0  0  0  0  0  0  0  0  0  0
    1.9777   -1.5072    1.0819 C   0  0  0  0  0  0  0  0  0  0  0  0
    3.3539   -1.4098    1.0342 C   0  0  0  0  0  0  0  0  0  0  0  0
    3.8939   -0.1992    0.6510 C   0  0  0  0  0  0  0  0  0  0  0  0
    5.2737   -0.0912    0.1802 C   0  0  0  0  0  0  0  0  0  0  0  0
    6.0541   -1.2338    0.0829 C   0  0  0  0  0  0  0  0  0  0  0  0
    6.9735   -1.3966   -0.9417 C   0  0  0  0  0  0  0  0  0  0  0  0
    7.3194   -0.3123   -1.7255 C   0  0  0  0  0  0  0  0  0  0  0  0
    6.6579    0.8889   -1.5170 C   0  0  0  0  0  0  0  0  0  0  0  0
    5.6959    1.0040   -0.5340 C   0  0  0  0  0  0  0  0  0  0  0  0
    3.0583    0.9036    0.5500 C   0  0  0  0  0  0  0  0  0  0  0  0
    1.6861    0.7849    0.6949 C   0  0  0  0  0  0  0  0  0  0  0  0
   -1.8619    0.0815   -0.9207 N   0  0  0  0  0  0  0  0  0  0  0  0
   -2.3098    1.0782   -1.8523 C   0  0  0  0  0  0  0  0  0  0  0  0
   -3.0687    1.9092   -1.2698 O   0  0  0  0  0  0  0  0  0  0  0  0
   -2.4718    0.5858   -3.2186 C   0  0  0  0  0  0  0  0  0  0  0  0
   -3.0214    1.5301   -4.2131 C   0  0  0  0  0  0  0  0  0  0  0  0
   -4.4993    1.5347   -4.1710 C   0  0  0  0  0  0  0  0  0  0  0  0
   -5.1829    0.4736   -4.0594 O   0  0  0  0  0  0  0  0  0  0  0  0
   -5.0837    2.6775   -3.6154 O   0  0  0  0  0  0  0  0  0  0  0  0
  1  2  1  0
  2  3  1  0
  3  4  1  0
  4  5  2  0
  6  4  1  1
  6  7  1  0
  6  8  1  0
  9  8  1  1
  9 10  1  0
 10 11  1  0
 11 12  2  0
 12 13  1  0
 13 14  2  0
 14 15  1  0
 15 16  2  0
 16 17  1  0
 17 18  2  0
 18 19  1  0
 19 20  2  0
 14 21  1  0
 21 22  2  0
  9 23  1  0
 23 24  1  0
 24 25  2  0
 24 26  1  0
 26 27  1  0
 27 28  1  0
 28 29  2  0
 28 30  1  0
 22 11  1  0
 20 15  1  0
M  END
>  <zinc_id>  (436) 
ZINC000003792417

>  <smiles>  (436) 
CCOC(=O)[C@H](C)C[C@@H](Cc1ccc(-c2ccccc2)cc1)NC(=O)CCC(=O)O

$$$$

     RDKit          3D

 27 30  0  0  0  0  0  0  0  0999 V2000
   -4.7531    1.3278   -2.3305 C   0  0  0  0  0  0  0  0  0  0  0  0
   -5.1690    1.9000   -1.0839 N   0  0  0  0  0  0  0  0  0  0  0  0
   -4.1092    2.6893   -0.5782 C   0  0  0  0  0  0  0  0  0  0  0  0
   -4.0373    2.5273    0.9006 C   0  0  0  0  0  0  0  0  0  0  0  0
   -5.0527    1.5021    1.2287 C   0  0  0  0  0  0  0  0  0  0  0  0
   -5.0505    0.5911   -0.1705 C   0  0  2  0  0  0  0  0  0  0  0  0
   -3.3816    0.5835   -0.2552 C   0  0  0  0  0  0  0  0  0  0  0  0
   -3.0756   -0.8426   -0.0315 C   0  0  0  0  0  0  0  0  0  0  0  0
   -3.8963   -1.9525    0.0195 C   0  0  0  0  0  0  0  0  0  0  0  0
   -3.2207   -2.9810    0.5885 N   0  0  0  0  0  0  0  0  0  0  0  0
   -2.0353   -2.4887    1.0234 C   0  0  0  0  0  0  0  0  0  0  0  0
   -0.9095   -3.0300    1.6313 C   0  0  0  0  0  0  0  0  0  0  0  0
    0.3567   -2.5566    1.3000 C   0  0  0  0  0  0  0  0  0  0  0  0
    0.5539   -1.7408    0.1891 C   0  0  0  0  0  0  0  0  0  0  0  0
    1.6097   -2.0681   -0.8228 C   0  0  0  0  0  0  0  0  0  0  0  0
    2.9305   -1.4322   -0.5065 C   0  0  0  0  0  0  0  0  0  0  0  0
    2.9083    0.3301   -0.7020 S   0  0  0  0  0  0  0  0  0  0  0  0
    1.8546    0.9806    0.1381 O   0  0  0  0  0  0  0  0  0  0  0  0
    2.7314    0.7390   -2.1251 O   0  0  0  0  0  0  0  0  0  0  0  0
    4.4610    0.9289   -0.1379 C   0  0  0  0  0  0  0  0  0  0  0  0
    4.5550    2.0125    0.7017 C   0  0  0  0  0  0  0  0  0  0  0  0
    5.7986    2.5133    0.9878 C   0  0  0  0  0  0  0  0  0  0  0  0
    6.9005    1.9440    0.3785 C   0  0  0  0  0  0  0  0  0  0  0  0
    6.8256    0.6560   -0.1337 C   0  0  0  0  0  0  0  0  0  0  0  0
    5.5737    0.1421   -0.3794 C   0  0  0  0  0  0  0  0  0  0  0  0
   -0.5507   -0.9570   -0.1365 C   0  0  0  0  0  0  0  0  0  0  0  0
   -1.8179   -1.3180    0.3064 C   0  0  0  0  0  0  0  0  0  0  0  0
  1  2  1  0
  2  3  1  0
  3  4  1  0
  4  5  1  0
  5  6  1  0
  6  7  1  6
  7  8  1  0
  8  9  2  0
  9 10  1  0
 10 11  1  0
 11 12  2  0
 12 13  1  0
 13 14  2  0
 14 15  1  0
 15 16  1  0
 16 17  1  0
 17 18  2  0
 17 19  2  0
 17 20  1  0
 20 21  2  0
 21 22  1  0
 22 23  2  0
 23 24  1  0
 24 25  2  0
 14 26  1  0
 26 27  2  0
  6  2  1  0
 27  8  1  0
 27 11  1  0
 25 20  1  0
M  END
>  <zinc_id>  (437) 
ZINC000003823475

>  <smiles>  (437) 
CN1CCC[C@@H]1Cc1c[nH]c2ccc(CCS(=O)(=O)c3ccccc3)cc12

$$$$

     RDKit          3D

 28 29  0  0  0  0  0  0  0  0999 V2000
    1.4341    0.4150    0.3593 O   0  0  0  0  0  0  0  0  0  0  0  0
    1.0263    0.0885   -0.1344 C   0  0  0  0  0  0  0  0  0  0  0  0
    1.6724   -0.9650   -0.8224 N   0  0  0  0  0  0  0  0  0  0  0  0
    3.1149   -1.0522   -0.6003 C   0  0  0  0  0  0  0  0  0  0  0  0
    3.4910   -2.5591   -1.1506 C   0  0  2  0  0  0  0  0  0  0  0  0
    3.3134   -3.3012    0.3035 C   0  0  0  0  0  0  0  0  0  0  0  0
    3.6792   -2.3657    1.3635 C   0  0  0  0  0  0  0  0  0  0  0  0
    5.0859   -1.8493    1.3516 C   0  0  0  0  0  0  0  0  0  0  0  0
    5.3250   -1.3826   -0.0615 C   0  0  0  0  0  0  0  0  0  0  0  0
    5.0484   -2.4052   -0.9809 N   0  0  0  0  0  0  0  0  0  0  0  0
   -0.3871    0.4059   -0.2393 C   0  0  0  0  0  0  0  0  0  0  0  0
   -1.3615   -0.4475    0.2638 C   0  0  0  0  0  0  0  0  0  0  0  0
   -2.6161    0.0188    0.6218 C   0  0  0  0  0  0  0  0  0  0  0  0
   -3.7312   -0.7763    0.4576 O   0  0  0  0  0  0  0  0  0  0  0  0
   -3.8338   -1.8596   -0.4261 C   0  0  0  0  0  0  0  0  0  0  0  0
   -4.5554   -2.9533    0.3149 C   0  0  0  0  0  0  0  0  0  0  0  0
   -5.3999   -2.3712    1.2544 F   0  0  0  0  0  0  0  0  0  0  0  0
   -5.3253   -3.7445   -0.5106 F   0  0  0  0  0  0  0  0  0  0  0  0
   -3.6147   -3.6630    1.0163 F   0  0  0  0  0  0  0  0  0  0  0  0
   -2.7328    1.3825    0.8663 C   0  0  0  0  0  0  0  0  0  0  0  0
   -1.8909    2.2589    0.1899 C   0  0  0  0  0  0  0  0  0  0  0  0
   -0.7001    1.7580   -0.3266 C   0  0  0  0  0  0  0  0  0  0  0  0
    0.0008    2.4947   -1.2814 O   0  0  0  0  0  0  0  0  0  0  0  0
   -0.2017    3.8774   -1.4001 C   0  0  0  0  0  0  0  0  0  0  0  0
    0.6000    4.5904   -0.3236 C   0  0  0  0  0  0  0  0  0  0  0  0
    1.6454    3.7493    0.0451 F   0  0  0  0  0  0  0  0  0  0  0  0
   -0.1886    4.9123    0.7573 F   0  0  0  0  0  0  0  0  0  0  0  0
    1.1025    5.7439   -0.9075 F   0  0  0  0  0  0  0  0  0  0  0  0
  1  2  2  0
  2  3  1  0
  3  4  1  0
  5  4  1  1
  5  6  1  0
  6  7  1  0
  7  8  1  0
  8  9  1  0
  9 10  1  0
  2 11  1  0
 11 12  2  0
 12 13  1  0
 13 14  1  0
 14 15  1  0
 15 16  1  0
 16 17  1  0
 16 18  1  0
 16 19  1  0
 13 20  2  0
 20 21  1  0
 21 22  2  0
 22 23  1  0
 23 24  1  0
 24 25  1  0
 25 26  1  0
 25 27  1  0
 25 28  1  0
 10  5  1  0
 22 11  1  0
M  END
>  <zinc_id>  (438) 
ZINC000003830842

>  <smiles>  (438) 
O=C(NC[C@@H]1CCCCN1)c1cc(OCC(F)(F)F)ccc1OCC(F)(F)F

$$$$

     RDKit          3D

 23 25  0  0  0  0  0  0  0  0999 V2000
   -4.6455   -0.0324    2.4299 C   0  0  0  0  0  0  0  0  0  0  0  0
   -4.5151   -0.8200    1.3769 O   0  0  0  0  0  0  0  0  0  0  0  0
   -3.6509   -0.6078    0.2947 C   0  0  0  0  0  0  0  0  0  0  0  0
   -2.9402   -1.6465   -0.2950 C   0  0  0  0  0  0  0  0  0  0  0  0
   -1.6401   -1.3869   -0.7250 C   0  0  0  0  0  0  0  0  0  0  0  0
   -1.0783   -0.1159   -0.6272 C   0  0  0  0  0  0  0  0  0  0  0  0
   -1.8075    0.9261   -0.1376 C   0  0  0  0  0  0  0  0  0  0  0  0
   -3.1521    0.6773    0.1164 C   0  0  0  0  0  0  0  0  0  0  0  0
   -4.1202    1.6890    0.1206 O   0  0  0  0  0  0  0  0  0  0  0  0
   -5.1816    1.6955   -0.8377 C   0  0  0  0  0  0  0  0  0  0  0  0
    0.4189   -0.2977   -0.0528 C   0  0  2  0  0  0  0  0  0  0  0  0
    0.8534    1.2494   -0.4118 C   0  0  0  0  0  0  0  0  0  0  0  0
    2.2506    1.1796    0.1419 C   0  0  0  0  0  0  0  0  0  0  0  0
    2.3062    1.4590    1.3453 O   0  0  0  0  0  0  0  0  0  0  0  0
    2.8512   -0.3129    0.0267 C   0  0  2  0  0  0  0  0  0  0  0  0
    4.3154    0.2480   -0.4410 C   0  0  0  0  0  0  0  0  0  0  0  0
    4.9801    0.5097    0.8774 C   0  0  0  0  0  0  0  0  0  0  0  0
    5.3474    1.9311    1.1223 C   0  0  0  0  0  0  0  0  0  0  0  0
    6.2355   -0.3213    0.9516 C   0  0  0  0  0  0  0  0  0  0  0  0
    2.3344   -0.4971   -1.5144 C   0  0  0  0  0  0  0  0  0  0  0  0
    0.9421   -0.8078   -1.4509 N   0  0  0  0  0  0  0  0  0  0  0  0
    0.5825   -2.1768   -1.5130 C   0  0  0  0  0  0  0  0  0  0  0  0
   -0.6861   -2.5416   -0.7973 C   0  0  0  0  0  0  0  0  0  0  0  0
  1  2  1  0
  2  3  1  0
  3  4  2  0
  4  5  1  0
  5  6  2  0
  6  7  1  0
  7  8  2  0
  8  9  1  0
  9 10  1  0
 11  6  1  6
 11 12  1  0
 12 13  1  0
 13 14  2  0
 13 15  1  0
 15 16  1  6
 16 17  1  0
 17 18  1  0
 17 19  1  0
 15 20  1  0
 20 21  1  0
 21 22  1  0
 22 23  1  0
  8  3  1  0
 21 11  1  0
 23  5  1  0
M  END
>  <zinc_id>  (439) 
ZINC000003875392

>  <smiles>  (439) 
COc1cc2c(cc1OC)[C@@H]1CC(=O)[C@H](CC(C)C)CN1CC2

$$$$

     RDKit          3D

 28 31  0  0  0  0  0  0  0  0999 V2000
   -3.3615    1.4335   -2.2974 C   0  0  0  0  0  0  0  0  0  0  0  0
   -3.0545   -0.1007   -1.8385 C   0  0  1  0  0  0  0  0  0  0  0  0
   -1.4634    0.0261   -2.1929 C   0  0  0  0  0  0  0  0  0  0  0  0
   -1.0243   -0.6654   -0.7993 C   0  0  1  0  0  0  0  0  0  0  0  0
    0.5769   -0.1252   -0.9049 C   0  0  2  0  0  0  0  0  0  0  0  0
    0.9110   -1.5877   -1.5158 C   0  0  0  0  0  0  0  0  0  0  0  0
    2.3188   -1.9342   -1.4371 C   0  0  0  0  0  0  0  0  0  0  0  0
    3.0471   -0.8479   -0.7909 C   0  0  0  0  0  0  0  0  0  0  0  0
    4.3576   -0.6568   -0.9665 C   0  0  0  0  0  0  0  0  0  0  0  0
    5.1053   -0.3007    0.2508 C   0  0  0  0  0  0  0  0  0  0  0  0
    6.2876    0.0940    0.1486 O   0  0  0  0  0  0  0  0  0  0  0  0
    4.5574   -0.9636    1.4457 C   0  0  0  0  0  0  0  0  0  0  0  0
    3.2345   -1.1578    1.5297 C   0  0  0  0  0  0  0  0  0  0  0  0
    2.4590   -0.4140    0.5199 C   0  0  1  0  0  0  0  0  0  0  0  0
    2.9854    1.0139    0.6193 C   0  0  0  0  0  0  0  0  0  0  0  0
    0.9946   -0.5361    0.5863 C   0  0  2  0  0  0  0  0  0  0  0  0
    0.4490   -1.6796    0.9566 F   0  0  0  0  0  0  0  0  0  0  0  0
    0.4671    0.6531    1.5822 C   0  0  1  0  0  0  0  0  0  0  0  0
    0.6258    1.7899    0.5869 O   0  0  0  0  0  0  0  0  0  0  0  0
   -1.1320    0.4159    1.2962 C   0  0  0  0  0  0  0  0  0  0  0  0
   -1.5268    0.6578   -0.0359 C   0  0  1  0  0  0  0  0  0  0  0  0
   -1.2585    1.8692   -0.7938 C   0  0  0  0  0  0  0  0  0  0  0  0
   -2.9272    0.2457   -0.2598 C   0  0  2  0  0  0  0  0  0  0  0  0
   -3.2217   -1.0578    0.2022 O   0  0  0  0  0  0  0  0  0  0  0  0
   -4.0041    1.0629    0.2036 C   0  0  0  0  0  0  0  0  0  0  0  0
   -4.1972    0.9566    1.4214 O   0  0  0  0  0  0  0  0  0  0  0  0
   -5.2565    1.4757   -0.4952 C   0  0  0  0  0  0  0  0  0  0  0  0
   -5.9493    0.3330   -0.8274 O   0  0  0  0  0  0  0  0  0  0  0  0
  2  1  1  6
  2  3  1  0
  4  3  1  6
  4  5  1  0
  5  6  1  6
  6  7  1  0
  7  8  1  0
  8  9  2  0
  9 10  1  0
 10 11  2  0
 10 12  1  0
 12 13  2  0
 13 14  1  0
 14 15  1  1
 14 16  1  0
 16 17  1  1
 16 18  1  0
 18 19  1  6
 18 20  1  0
 20 21  1  0
 21 22  1  6
 21 23  1  0
 23 24  1  1
 23 25  1  0
 25 26  2  0
 25 27  1  0
 27 28  1  0
 23  2  1  0
 21  4  1  0
 16  5  1  0
 14  8  1  0
M  END
>  <zinc_id>  (440) 
ZINC000003876136

>  <smiles>  (440) 
C[C@H]1C[C@H]2[C@@H]3CCC4=CC(=O)C=C[C@]4(C)[C@@]3(F)[C@@H](O)C[C@]2(C)[C@@]1(O)C(=O)CO

$$$$

     RDKit          3D

 14 14  0  0  0  0  0  0  0  0999 V2000
    2.5179    2.2385    0.7061 C   0  0  0  0  0  0  0  0  0  0  0  0
    3.0905    1.1006   -0.0643 C   0  0  0  0  0  0  0  0  0  0  0  0
    3.9567    1.2644   -0.9725 O   0  0  0  0  0  0  0  0  0  0  0  0
    2.5939   -0.2382    0.0613 N   0  0  0  0  0  0  0  0  0  0  0  0
    1.3048   -0.3913   -0.0371 C   0  0  0  0  0  0  0  0  0  0  0  0
    0.0846    0.7187   -0.5260 S   0  0  0  0  0  0  0  0  0  0  0  0
   -1.2696   -0.2848   -0.1829 C   0  0  0  0  0  0  0  0  0  0  0  0
   -2.9849    0.0772   -0.1356 S   0  0  0  0  0  0  0  0  0  0  0  0
   -3.2151    1.5736   -0.9743 N   0  0  0  0  0  0  0  0  0  0  0  0
   -3.3545    0.3164    1.2922 O   0  0  0  0  0  0  0  0  0  0  0  0
   -3.8064   -1.0237   -0.7283 O   0  0  0  0  0  0  0  0  0  0  0  0
   -0.6307   -1.4572   -0.0628 N   0  0  0  0  0  0  0  0  0  0  0  0
    0.5326   -1.3495    0.5376 N   0  0  0  0  0  0  0  0  0  0  0  0
    1.1804   -2.5446    1.0867 C   0  0  0  0  0  0  0  0  0  0  0  0
  1  2  1  0
  2  3  2  0
  2  4  1  0
  4  5  2  0
  5  6  1  0
  6  7  1  0
  7  8  1  0
  8  9  1  0
  8 10  2  0
  8 11  2  0
  7 12  2  0
 12 13  1  0
 13 14  1  0
 13  5  1  0
M  END
>  <zinc_id>  (441) 
ZINC000012503151

>  <smiles>  (441) 
CC(=O)/N=c1\sc(S(N)(=O)=O)nn1C

$$$$

     RDKit          3D

 38 43  0  0  0  0  0  0  0  0999 V2000
    7.7012    3.5793    0.2968 C   0  0  0  0  0  0  0  0  0  0  0  0
    6.8093    2.4005    0.5121 C   0  0  0  0  0  0  0  0  0  0  0  0
    5.9608    2.3154    1.5440 N   0  0  0  0  0  0  0  0  0  0  0  0
    5.2486    1.1710    1.3994 C   0  0  0  0  0  0  0  0  0  0  0  0
    5.5496    0.7221    0.1202 C   0  0  0  0  0  0  0  0  0  0  0  0
    6.5443    1.4494   -0.4000 N   0  0  0  0  0  0  0  0  0  0  0  0
    5.0897   -0.5497   -0.4381 C   0  0  0  0  0  0  0  0  0  0  0  0
    5.7438   -0.9045   -1.5872 C   0  0  0  0  0  0  0  0  0  0  0  0
    5.3464   -2.0103   -2.3247 C   0  0  0  0  0  0  0  0  0  0  0  0
    4.0509   -2.4420   -2.1423 C   0  0  0  0  0  0  0  0  0  0  0  0
    3.5531   -2.3320   -0.8497 C   0  0  0  0  0  0  0  0  0  0  0  0
    3.9723   -1.2643   -0.0855 C   0  0  0  0  0  0  0  0  0  0  0  0
    3.2617   -1.1412    1.1521 N   0  0  0  0  0  0  0  0  0  0  0  0
    1.9864   -1.7920    1.0957 C   0  0  0  0  0  0  0  0  0  0  0  0
    1.4897   -2.1645    2.1857 O   0  0  0  0  0  0  0  0  0  0  0  0
    1.0817   -1.3330    0.0348 C   0  0  0  0  0  0  0  0  0  0  0  0
    0.1085   -2.1716   -0.4943 C   0  0  0  0  0  0  0  0  0  0  0  0
   -0.9462   -1.5690   -1.1701 C   0  0  0  0  0  0  0  0  0  0  0  0
   -1.2939   -0.2412   -0.9494 C   0  0  0  0  0  0  0  0  0  0  0  0
   -2.6529    0.1459   -0.7065 N   0  0  0  0  0  0  0  0  0  0  0  0
   -3.2760   -0.0563    0.5680 C   0  0  0  0  0  0  0  0  0  0  0  0
   -2.4741   -0.3350    1.5107 O   0  0  0  0  0  0  0  0  0  0  0  0
   -4.6057   -0.6682    0.6901 C   0  0  0  0  0  0  0  0  0  0  0  0
   -4.7313   -2.0227    0.9706 C   0  0  0  0  0  0  0  0  0  0  0  0
   -5.6208   -2.8384    0.2826 C   0  0  0  0  0  0  0  0  0  0  0  0
   -6.6239   -2.2509   -0.4763 C   0  0  0  0  0  0  0  0  0  0  0  0
   -6.7570   -0.8716   -0.3919 C   0  0  0  0  0  0  0  0  0  0  0  0
   -5.6995   -0.0908    0.0587 C   0  0  0  0  0  0  0  0  0  0  0  0
   -5.7138    1.3695   -0.0797 C   0  0  0  0  0  0  0  0  0  0  0  0
   -6.4421    1.8546   -1.1597 C   0  0  0  0  0  0  0  0  0  0  0  0
   -6.8168    3.1675   -1.2485 C   0  0  0  0  0  0  0  0  0  0  0  0
   -6.7123    3.9646   -0.1402 C   0  0  0  0  0  0  0  0  0  0  0  0
   -5.8868    3.5537    0.8821 C   0  0  0  0  0  0  0  0  0  0  0  0
   -5.5765    2.2082    1.0164 C   0  0  0  0  0  0  0  0  0  0  0  0
   -0.2380    0.5961   -0.6098 C   0  0  0  0  0  0  0  0  0  0  0  0
    0.9387    0.0407   -0.1210 C   0  0  0  0  0  0  0  0  0  0  0  0
    3.6425   -0.4684    2.3660 C   0  0  0  0  0  0  0  0  0  0  0  0
    3.9882    0.9794    2.1704 C   0  0  0  0  0  0  0  0  0  0  0  0
  1  2  1  0
  2  3  2  0
  3  4  1  0
  4  5  2  0
  5  6  1  0
  5  7  1  0
  7  8  2  0
  8  9  1  0
  9 10  2  0
 10 11  1  0
 11 12  2  0
 12 13  1  0
 13 14  1  0
 14 15  2  0
 14 16  1  0
 16 17  2  0
 17 18  1  0
 18 19  2  0
 19 20  1  0
 20 21  1  0
 21 22  2  0
 21 23  1  0
 23 24  2  0
 24 25  1  0
 25 26  2  0
 26 27  1  0
 27 28  2  0
 28 29  1  0
 29 30  2  0
 30 31  1  0
 31 32  2  0
 32 33  1  0
 33 34  2  0
 19 35  1  0
 35 36  2  0
 13 37  1  0
 37 38  1  0
  6  2  1  0
 12  7  1  0
 36 16  1  0
 38  4  1  0
 28 23  1  0
 34 29  1  0
M  END
>  <zinc_id>  (442) 
ZINC000012503187

>  <smiles>  (442) 
Cc1nc2c([nH]1)-c1ccccc1N(C(=O)c1ccc(NC(=O)c3ccccc3-c3ccccc3)cc1)CC2

$$$$

     RDKit          3D

 17 18  0  0  0  0  0  0  0  0999 V2000
    1.1992   -0.2039    2.4449 O   0  0  0  0  0  0  0  0  0  0  0  0
    1.6425    0.0897    1.1509 C   0  0  0  0  0  0  0  0  0  0  0  0
    2.6558    1.0128    0.9209 C   0  0  0  0  0  0  0  0  0  0  0  0
    3.5785    0.7754   -0.0912 C   0  0  0  0  0  0  0  0  0  0  0  0
    5.2094    1.4382   -0.0315 Cl  0  0  0  0  0  0  0  0  0  0  0  0
    3.2103   -0.1230   -1.0791 C   0  0  0  0  0  0  0  0  0  0  0  0
    2.1789   -1.0363   -0.9048 C   0  0  0  0  0  0  0  0  0  0  0  0
    1.2545   -0.7068    0.0802 C   0  0  0  0  0  0  0  0  0  0  0  0
    0.0117   -1.3407    0.1665 O   0  0  0  0  0  0  0  0  0  0  0  0
   -1.1834   -0.6183    0.1075 C   0  0  0  0  0  0  0  0  0  0  0  0
   -1.3387    0.6036    0.7330 C   0  0  0  0  0  0  0  0  0  0  0  0
   -2.3151    1.4713    0.2777 C   0  0  0  0  0  0  0  0  0  0  0  0
   -3.3657    0.9513   -0.4561 C   0  0  0  0  0  0  0  0  0  0  0  0
   -4.7232    2.0454   -0.7079 Cl  0  0  0  0  0  0  0  0  0  0  0  0
   -3.4525   -0.4004   -0.7245 C   0  0  0  0  0  0  0  0  0  0  0  0
   -2.3254   -1.1669   -0.4583 C   0  0  0  0  0  0  0  0  0  0  0  0
   -2.2366   -2.7915   -1.0807 Cl  0  0  0  0  0  0  0  0  0  0  0  0
  1  2  1  0
  2  3  2  0
  3  4  1  0
  4  5  1  0
  4  6  2  0
  6  7  1  0
  7  8  2  0
  8  9  1  0
  9 10  1  0
 10 11  2  0
 11 12  1  0
 12 13  2  0
 13 14  1  0
 13 15  1  0
 15 16  2  0
 16 17  1  0
  8  2  1  0
 16 10  1  0
M  END
>  <zinc_id>  (443) 
ZINC000000002216

>  <smiles>  (443) 
Oc1cc(Cl)ccc1Oc1ccc(Cl)cc1Cl

$$$$

     RDKit          3D

 39 41  0  0  0  0  0  0  0  0999 V2000
   -1.7163    0.8203   -3.6153 C   0  0  0  0  0  0  0  0  0  0  0  0
   -1.9585    1.7864   -3.2575 C   0  0  0  0  0  0  0  0  0  0  0  0
   -2.5826    2.7461   -4.2217 C   0  0  0  0  0  0  0  0  0  0  0  0
   -1.7841    2.3731   -1.9075 C   0  0  0  0  0  0  0  0  0  0  0  0
   -1.6882    1.3504   -0.8550 N   0  0  0  0  0  0  0  0  0  0  0  0
   -0.7401    0.3424   -1.3397 C   0  0  0  0  0  0  0  0  0  0  0  0
    0.1593   -0.0799   -0.0267 C   0  0  1  0  0  0  0  0  0  0  0  0
   -0.5211   -1.4113    0.1793 O   0  0  0  0  0  0  0  0  0  0  0  0
   -0.6719   -2.3399   -1.1338 P   0  0  0  0  0  0  0  0  0  0  0  0
   -0.2656   -1.8665   -2.4738 O   0  0  0  0  0  0  0  0  0  0  0  0
   -2.3459   -2.7023   -1.3409 O   0  0  0  0  0  0  0  0  0  0  0  0
   -0.0497   -3.8703   -0.7580 O   0  0  0  0  0  0  0  0  0  0  0  0
    1.3971   -0.8979   -0.9002 C   0  0  2  0  0  0  0  0  0  0  0  0
    1.8108   -1.7196    0.4492 C   0  0  0  0  0  0  0  0  0  0  0  0
    3.0803   -2.3891    0.2060 C   0  0  0  0  0  0  0  0  0  0  0  0
    3.5662   -2.6399   -1.0527 C   0  0  0  0  0  0  0  0  0  0  0  0
    4.1395   -3.8544   -1.3866 C   0  0  0  0  0  0  0  0  0  0  0  0
    4.5069   -4.7026   -0.3481 C   0  0  0  0  0  0  0  0  0  0  0  0
    4.3871   -4.2615    0.9640 C   0  0  0  0  0  0  0  0  0  0  0  0
    3.3728   -3.3399    1.1795 C   0  0  0  0  0  0  0  0  0  0  0  0
    2.4885    0.1957   -0.7056 N   0  0  0  0  0  0  0  0  0  0  0  0
    2.6855    0.7638    0.5409 C   0  0  0  0  0  0  0  0  0  0  0  0
    1.6267    1.0413    1.1748 O   0  0  0  0  0  0  0  0  0  0  0  0
    3.8740    1.4333    0.8578 O   0  0  0  0  0  0  0  0  0  0  0  0
    3.6908    2.8761    1.3710 C   0  0  1  0  0  0  0  0  0  0  0  0
    4.7861    2.6533    2.5826 C   0  0  0  0  0  0  0  0  0  0  0  0
    5.6841    3.8372    2.3587 C   0  0  0  0  0  0  0  0  0  0  0  0
    5.2519    4.4877    1.2150 O   0  0  0  0  0  0  0  0  0  0  0  0
    4.8822    3.4379    0.3783 C   0  0  0  0  0  0  0  0  0  0  0  0
   -3.2402    0.7797   -0.6180 S   0  0  0  0  0  0  0  0  0  0  0  0
   -3.8528   -0.0067   -1.7054 O   0  0  0  0  0  0  0  0  0  0  0  0
   -2.8111   -0.4113    0.2744 O   0  0  0  0  0  0  0  0  0  0  0  0
   -4.2714    1.3810    0.6138 C   0  0  0  0  0  0  0  0  0  0  0  0
   -3.9278    1.5053    1.9556 C   0  0  0  0  0  0  0  0  0  0  0  0
   -4.8007    1.2796    3.0167 C   0  0  0  0  0  0  0  0  0  0  0  0
   -5.8723    0.4360    2.7569 C   0  0  0  0  0  0  0  0  0  0  0  0
   -6.2575   -0.6568    3.6002 N   0  0  0  0  0  0  0  0  0  0  0  0
   -6.4470    0.6733    1.5139 C   0  0  0  0  0  0  0  0  0  0  0  0
   -5.5848    0.9499    0.4578 C   0  0  0  0  0  0  0  0  0  0  0  0
  1  2  1  0
  2  3  1  0
  2  4  1  0
  4  5  1  0
  5  6  1  0
  7  6  1  6
  7  8  1  0
  8  9  1  0
  9 10  2  0
  9 11  1  0
  9 12  1  0
  7 13  1  0
 13 14  1  1
 14 15  1  0
 15 16  2  0
 16 17  1  0
 17 18  2  0
 18 19  1  0
 19 20  2  0
 13 21  1  0
 21 22  1  0
 22 23  2  0
 22 24  1  0
 25 24  1  6
 25 26  1  0
 26 27  1  0
 27 28  1  0
 28 29  1  0
  5 30  1  0
 30 31  2  0
 30 32  2  0
 30 33  1  0
 33 34  2  0
 34 35  1  0
 35 36  2  0
 36 37  1  0
 36 38  1  0
 38 39  2  0
 20 15  1  0
 29 25  1  0
 39 33  1  0
M  END
>  <zinc_id>  (444) 
ZINC000003941829

>  <smiles>  (444) 
CC(C)CN(C[C@@H](OP(=O)(O)O)[C@H](Cc1ccccc1)NC(=O)O[C@H]1CCOC1)S(=O)(=O)c1ccc(N)cc1

$$$$

     RDKit          3D

 29 33  0  0  0  0  0  0  0  0999 V2000
   -0.3176    0.3948   -0.3411 O   0  0  0  0  0  0  0  0  0  0  0  0
   -0.4863    0.1631   -0.4450 C   0  0  0  0  0  0  0  0  0  0  0  0
    0.5435   -0.3771   -1.0346 O   0  0  0  0  0  0  0  0  0  0  0  0
    1.9404   -0.1906   -0.7878 C   0  0  0  0  0  0  0  0  0  0  0  0
    2.1289    0.7745    0.2966 C   0  0  0  0  0  0  0  0  0  0  0  0
    3.2171    0.1297    1.3575 C   0  0  1  0  0  0  0  0  0  0  0  0
    2.4346   -1.3080    1.4273 C   0  0  0  0  0  0  0  0  0  0  0  0
    3.5945   -2.1579    1.2670 C   0  0  0  0  0  0  0  0  0  0  0  0
    3.9908   -1.6339   -0.2430 C   0  0  1  0  0  0  0  0  0  0  0  0
    2.4387   -1.5144   -0.7650 C   0  0  0  0  0  0  0  0  0  0  0  0
    4.2170   -0.1870    0.2319 N   0  0  0  0  0  0  0  0  0  0  0  0
    5.4536   -0.3439    0.9918 C   0  0  0  0  0  0  0  0  0  0  0  0
    5.9674    1.0643    1.0198 C   0  0  0  0  0  0  0  0  0  0  0  0
    5.3654    1.7455   -0.1984 C   0  0  0  0  0  0  0  0  0  0  0  0
    4.3582    0.7457   -0.7241 C   0  0  0  0  0  0  0  0  0  0  0  0
   -1.7247    0.0200    0.2356 C   0  0  0  0  0  0  0  0  0  0  0  0
   -1.4123    0.1534    1.6038 O   0  0  0  0  0  0  0  0  0  0  0  0
   -2.5313   -1.1802    0.0722 C   0  0  0  0  0  0  0  0  0  0  0  0
   -3.3704   -1.3382   -1.0260 C   0  0  0  0  0  0  0  0  0  0  0  0
   -4.6124   -1.9525   -0.9194 C   0  0  0  0  0  0  0  0  0  0  0  0
   -4.9825   -2.5317    0.2828 C   0  0  0  0  0  0  0  0  0  0  0  0
   -3.9731   -2.7869    1.1985 C   0  0  0  0  0  0  0  0  0  0  0  0
   -2.8480   -2.0013    1.1515 C   0  0  0  0  0  0  0  0  0  0  0  0
   -2.4784    1.2798   -0.0926 C   0  0  0  0  0  0  0  0  0  0  0  0
   -2.1748    2.4672    0.5609 C   0  0  0  0  0  0  0  0  0  0  0  0
   -3.0393    3.5442    0.4147 C   0  0  0  0  0  0  0  0  0  0  0  0
   -4.2430    3.3023   -0.2354 C   0  0  0  0  0  0  0  0  0  0  0  0
   -4.2269    2.3411   -1.2391 C   0  0  0  0  0  0  0  0  0  0  0  0
   -3.2291    1.3778   -1.2341 C   0  0  0  0  0  0  0  0  0  0  0  0
  1  2  2  0
  2  3  1  0
  3  4  1  0
  4  5  1  0
  6  5  1  6
  6  7  1  0
  7  8  1  0
  9  8  1  1
  9 10  1  0
  9 11  1  0
 11 12  1  0
 12 13  1  0
 13 14  1  0
 14 15  1  0
  2 16  1  0
 16 17  1  0
 16 18  1  0
 18 19  2  0
 19 20  1  0
 20 21  2  0
 21 22  1  0
 22 23  2  0
 16 24  1  0
 24 25  2  0
 25 26  1  0
 26 27  2  0
 27 28  1  0
 28 29  2  0
 10  4  1  0
 15 11  1  0
 23 18  1  0
 29 24  1  0
 11  6  1  0
M  CHG  1  11   1
M  END
>  <zinc_id>  (445) 
ZINC000012503068

>  <smiles>  (445) 
O=C(OC1C[C@@H]2CC[C@H](C1)[N+]21CCCC1)C(O)(c1ccccc1)c1ccccc1

$$$$

     RDKit          3D

 15 15  0  0  0  0  0  0  0  0999 V2000
    3.9981   -1.3657    0.3357 C   0  0  0  0  0  0  0  0  0  0  0  0
    2.7010   -1.9705   -0.1015 C   0  0  0  0  0  0  0  0  0  0  0  0
    1.7832   -1.1078   -0.5371 C   0  0  0  0  0  0  0  0  0  0  0  0
    1.5667    0.1004    0.2450 C   0  0  0  0  0  0  0  0  0  0  0  0
    2.5896    0.7612    0.5515 O   0  0  0  0  0  0  0  0  0  0  0  0
    0.2737    0.6944    0.3734 N   0  0  0  0  0  0  0  0  0  0  0  0
    0.1549    2.0101    0.9776 C   0  0  0  0  0  0  0  0  0  0  0  0
    1.0314    2.9769    0.1902 C   0  0  0  0  0  0  0  0  0  0  0  0
   -0.8508   -0.0427   -0.0907 C   0  0  0  0  0  0  0  0  0  0  0  0
   -0.9613   -1.4098    0.1001 C   0  0  0  0  0  0  0  0  0  0  0  0
   -2.1461   -2.0531   -0.2313 C   0  0  0  0  0  0  0  0  0  0  0  0
   -3.2853   -1.2779   -0.2954 C   0  0  0  0  0  0  0  0  0  0  0  0
   -3.1883    0.0815   -0.5473 C   0  0  0  0  0  0  0  0  0  0  0  0
   -1.9449    0.6707   -0.5608 C   0  0  0  0  0  0  0  0  0  0  0  0
   -1.7219    1.9322   -1.3043 C   0  0  0  0  0  0  0  0  0  0  0  0
  1  2  1  0
  2  3  2  0
  3  4  1  0
  4  5  2  0
  4  6  1  0
  6  7  1  0
  7  8  1  0
  6  9  1  0
  9 10  2  0
 10 11  1  0
 11 12  2  0
 12 13  1  0
 13 14  2  0
 14 15  1  0
 14  9  1  0
M  END
>  <zinc_id>  (446) 
ZINC000012503076

>  <smiles>  (446) 
C/C=C\C(=O)N(CC)c1ccccc1C

$$$$

     RDKit          3D

 21 23  0  0  0  0  0  0  0  0999 V2000
   -1.1174    5.2266    0.2833 C   0  0  0  0  0  0  0  0  0  0  0  0
   -1.0667    3.7736   -0.0676 C   0  0  0  0  0  0  0  0  0  0  0  0
   -2.1245    2.9310    0.2390 C   0  0  0  0  0  0  0  0  0  0  0  0
   -1.9381    1.5547    0.1933 C   0  0  0  0  0  0  0  0  0  0  0  0
   -0.7129    1.0044   -0.1643 C   0  0  0  0  0  0  0  0  0  0  0  0
   -0.5687   -0.4402   -0.1228 C   0  0  0  0  0  0  0  0  0  0  0  0
    0.6613   -0.9154   -0.0341 C   0  0  0  0  0  0  0  0  0  0  0  0
    1.7831   -0.1612    0.5922 C   0  0  0  0  0  0  0  0  0  0  0  0
    2.9858   -0.9449    0.3162 N   0  0  0  0  0  0  0  0  0  0  0  0
    3.4718   -0.6371   -1.0063 C   0  0  0  0  0  0  0  0  0  0  0  0
    4.9614   -0.8475   -1.0039 C   0  0  0  0  0  0  0  0  0  0  0  0
    5.2593   -1.2010    0.4432 C   0  0  0  0  0  0  0  0  0  0  0  0
    4.0760   -0.5995    1.1927 C   0  0  0  0  0  0  0  0  0  0  0  0
   -1.6604   -1.3496   -0.4911 C   0  0  0  0  0  0  0  0  0  0  0  0
   -2.9789   -1.0104   -0.2195 C   0  0  0  0  0  0  0  0  0  0  0  0
   -3.9824   -1.9439   -0.4435 C   0  0  0  0  0  0  0  0  0  0  0  0
   -3.6016   -3.2800   -0.4340 C   0  0  0  0  0  0  0  0  0  0  0  0
   -2.2780   -3.6366   -0.5960 C   0  0  0  0  0  0  0  0  0  0  0  0
   -1.4199   -2.6178   -0.8431 N   0  0  0  0  0  0  0  0  0  0  0  0
    0.2385    1.8668   -0.6358 C   0  0  0  0  0  0  0  0  0  0  0  0
    0.0120    3.2279   -0.7405 C   0  0  0  0  0  0  0  0  0  0  0  0
  1  2  1  0
  2  3  2  0
  3  4  1  0
  4  5  2  0
  5  6  1  0
  6  7  2  0
  7  8  1  0
  8  9  1  0
  9 10  1  0
 10 11  1  0
 11 12  1  0
 12 13  1  0
  6 14  1  0
 14 15  2  0
 15 16  1  0
 16 17  2  0
 17 18  1  0
 18 19  2  0
  5 20  1  0
 20 21  2  0
 21  2  1  0
 13  9  1  0
 19 14  1  0
M  END
>  <zinc_id>  (447) 
ZINC000012503099

>  <smiles>  (447) 
Cc1ccc(/C(=C\CN2CCCC2)c2ccccn2)cc1

$$$$

     RDKit          3D

 27 29  0  0  0  0  0  0  0  0999 V2000
   -3.2612   -4.0108   -0.2751 C   0  0  0  0  0  0  0  0  0  0  0  0
   -2.7378   -2.7119   -0.8754 C   0  0  0  0  0  0  0  0  0  0  0  0
   -2.6935   -1.7237    0.2402 C   0  0  0  0  0  0  0  0  0  0  0  0
   -2.5383   -2.0824    1.4429 O   0  0  0  0  0  0  0  0  0  0  0  0
   -2.3889   -0.3686   -0.0693 N   0  0  0  0  0  0  0  0  0  0  0  0
   -3.3987    0.5886    0.1755 C   0  0  0  0  0  0  0  0  0  0  0  0
   -4.2595    0.4202    1.2534 C   0  0  0  0  0  0  0  0  0  0  0  0
   -4.9126    1.5634    1.6893 C   0  0  0  0  0  0  0  0  0  0  0  0
   -4.8406    2.7641    0.9958 C   0  0  0  0  0  0  0  0  0  0  0  0
   -4.3098    2.6984   -0.2851 C   0  0  0  0  0  0  0  0  0  0  0  0
   -3.8265    1.4960   -0.7863 C   0  0  0  0  0  0  0  0  0  0  0  0
   -0.9872   -0.0432   -0.2473 C   0  0  0  0  0  0  0  0  0  0  0  0
   -0.8668    1.4267   -0.5492 C   0  0  0  0  0  0  0  0  0  0  0  0
   -0.1599    2.1294    0.4123 O   0  0  0  0  0  0  0  0  0  0  0  0
   -0.8626    2.3340    1.5846 C   0  0  0  0  0  0  0  0  0  0  0  0
   -0.4672   -0.8862   -1.3948 C   0  0  0  0  0  0  0  0  0  0  0  0
    0.9990   -0.6854   -1.6481 C   0  0  0  0  0  0  0  0  0  0  0  0
    1.8079   -0.7629   -0.4601 N   0  0  0  0  0  0  0  0  0  0  0  0
    3.0907   -0.1386   -0.7774 C   0  0  0  0  0  0  0  0  0  0  0  0
    3.6890    0.4970    0.4723 C   0  0  0  0  0  0  0  0  0  0  0  0
    5.1275    0.0817    0.4835 C   0  0  0  0  0  0  0  0  0  0  0  0
    5.8400   -0.4960    1.5291 C   0  0  0  0  0  0  0  0  0  0  0  0
    7.1886   -0.4063    1.3177 C   0  0  0  0  0  0  0  0  0  0  0  0
    7.5302   -0.8473    0.0439 C   0  0  0  0  0  0  0  0  0  0  0  0
    6.1400   -0.3529   -0.8336 S   0  0  0  0  0  0  0  0  0  0  0  0
    1.2661   -0.0424    0.6609 C   0  0  0  0  0  0  0  0  0  0  0  0
   -0.1680   -0.4408    0.9755 C   0  0  0  0  0  0  0  0  0  0  0  0
  1  2  1  0
  2  3  1  0
  3  4  2  0
  3  5  1  0
  5  6  1  0
  6  7  2  0
  7  8  1  0
  8  9  2  0
  9 10  1  0
 10 11  2  0
  5 12  1  0
 12 13  1  0
 13 14  1  0
 14 15  1  0
 12 16  1  0
 16 17  1  0
 17 18  1  0
 18 19  1  0
 19 20  1  0
 20 21  1  0
 21 22  2  0
 22 23  1  0
 23 24  2  0
 24 25  1  0
 18 26  1  0
 26 27  1  0
 11  6  1  0
 27 12  1  0
 25 21  1  0
M  END
>  <zinc_id>  (448) 
ZINC000000538386

>  <smiles>  (448) 
CCC(=O)N(c1ccccc1)C1(COC)CCN(CCc2cccs2)CC1

$$$$

     RDKit          3D

 33 35  0  0  0  0  0  0  0  0999 V2000
    4.2306    4.3019    0.4431 C   0  0  0  0  0  0  0  0  0  0  0  0
    4.4633    3.2910   -0.5125 O   0  0  0  0  0  0  0  0  0  0  0  0
    5.5524    2.4359   -0.3831 C   0  0  0  0  0  0  0  0  0  0  0  0
    6.8142    3.0147   -0.4346 C   0  0  0  0  0  0  0  0  0  0  0  0
    7.9386    2.2288   -0.2380 C   0  0  0  0  0  0  0  0  0  0  0  0
    7.7145    0.9370    0.2146 C   0  0  0  0  0  0  0  0  0  0  0  0
    9.0022   -0.0494    0.8973 Cl  0  0  0  0  0  0  0  0  0  0  0  0
    6.5601    0.3221   -0.2544 C   0  0  0  0  0  0  0  0  0  0  0  0
    5.3996    1.0699   -0.3256 C   0  0  0  0  0  0  0  0  0  0  0  0
    4.0684    0.4862   -0.1735 C   0  0  0  0  0  0  0  0  0  0  0  0
    3.1002    1.1938    0.1846 O   0  0  0  0  0  0  0  0  0  0  0  0
    3.8881   -0.9170   -0.1618 N   0  0  0  0  0  0  0  0  0  0  0  0
    2.9065   -1.6069    0.6341 C   0  0  0  0  0  0  0  0  0  0  0  0
    1.6697   -0.7866    0.8961 C   0  0  0  0  0  0  0  0  0  0  0  0
    0.5172   -1.5651    0.3506 C   0  0  0  0  0  0  0  0  0  0  0  0
   -0.3186   -1.0113   -0.5899 C   0  0  0  0  0  0  0  0  0  0  0  0
   -1.5661   -1.5557   -0.8275 C   0  0  0  0  0  0  0  0  0  0  0  0
   -1.9094   -2.7008   -0.1254 C   0  0  0  0  0  0  0  0  0  0  0  0
   -3.6163   -3.0811    0.0633 S   0  0  0  0  0  0  0  0  0  0  0  0
   -4.0115   -4.0410   -1.0087 O   0  0  0  0  0  0  0  0  0  0  0  0
   -3.8483   -3.7410    1.3952 O   0  0  0  0  0  0  0  0  0  0  0  0
   -4.5851   -1.6544   -0.0967 N   0  0  0  0  0  0  0  0  0  0  0  0
   -4.5876   -0.7159    0.8022 C   0  0  0  0  0  0  0  0  0  0  0  0
   -3.6242   -0.8320    1.8069 O   0  0  0  0  0  0  0  0  0  0  0  0
   -5.6604    0.1977    0.9415 N   0  0  0  0  0  0  0  0  0  0  0  0
   -6.4887    0.4352   -0.2318 C   0  0  0  0  0  0  0  0  0  0  0  0
   -5.6292    1.0837   -1.2972 C   0  0  0  0  0  0  0  0  0  0  0  0
   -6.2179    2.4440   -1.6367 C   0  0  0  0  0  0  0  0  0  0  0  0
   -6.3028    3.2547   -0.3719 C   0  0  0  0  0  0  0  0  0  0  0  0
   -7.2326    2.6218    0.6530 C   0  0  0  0  0  0  0  0  0  0  0  0
   -7.6843    1.2917    0.0818 C   0  0  0  0  0  0  0  0  0  0  0  0
   -0.9204   -3.4224    0.5231 C   0  0  0  0  0  0  0  0  0  0  0  0
    0.3778   -2.9292    0.5747 C   0  0  0  0  0  0  0  0  0  0  0  0
  1  2  1  0
  2  3  1  0
  3  4  2  0
  4  5  1  0
  5  6  2  0
  6  7  1  0
  6  8  1  0
  8  9  2  0
  9 10  1  0
 10 11  2  0
 10 12  1  0
 12 13  1  0
 13 14  1  0
 14 15  1  0
 15 16  2  0
 16 17  1  0
 17 18  2  0
 18 19  1  0
 19 20  2  0
 19 21  2  0
 19 22  1  0
 22 23  2  0
 23 24  1  0
 23 25  1  0
 25 26  1  0
 26 27  1  0
 27 28  1  0
 28 29  1  0
 29 30  1  0
 30 31  1  0
 18 32  1  0
 32 33  2  0
  9  3  1  0
 33 15  1  0
 31 26  1  0
M  END
>  <zinc_id>  (449) 
ZINC000000537805

>  <smiles>  (449) 
COc1ccc(Cl)cc1C(=O)NCCc1ccc(S(=O)(=O)/N=C(\O)NC2CCCCC2)cc1

$$$$

     RDKit          3D

 19 19  0  0  0  0  0  0  0  0999 V2000
    5.6337    0.4943    1.1074 C   0  0  0  0  0  0  0  0  0  0  0  0
    5.2285    0.2466    1.1543 C   0  0  0  0  0  0  0  0  0  0  0  0
    4.4939    0.5042    2.4618 C   0  0  0  0  0  0  0  0  0  0  0  0
    4.3487    0.3244    0.0050 N   0  0  0  0  0  0  0  0  0  0  0  0
    3.9547   -0.9497   -0.5080 C   0  0  0  0  0  0  0  0  0  0  0  0
    2.3722   -0.8000   -0.9684 C   0  0  2  0  0  0  0  0  0  0  0  0
    2.6439    0.5069   -1.7046 O   0  0  0  0  0  0  0  0  0  0  0  0
    1.9674   -0.0054    0.4273 C   0  0  0  0  0  0  0  0  0  0  0  0
    0.8591    0.7567   -0.0474 O   0  0  0  0  0  0  0  0  0  0  0  0
   -0.2682   -0.0434   -0.2685 C   0  0  0  0  0  0  0  0  0  0  0  0
   -1.0666    0.0795   -1.3797 C   0  0  0  0  0  0  0  0  0  0  0  0
   -2.4427   -0.0438   -1.2287 C   0  0  0  0  0  0  0  0  0  0  0  0
   -3.0235   -0.2941    0.0098 C   0  0  0  0  0  0  0  0  0  0  0  0
   -4.2436    0.4496    0.4587 C   0  0  0  0  0  0  0  0  0  0  0  0
   -5.4539    0.0123   -0.2609 C   0  0  0  0  0  0  0  0  0  0  0  0
   -6.6224   -0.2224    0.5326 N   0  0  0  0  0  0  0  0  0  0  0  0
   -5.4365   -0.0958   -1.5071 O   0  0  0  0  0  0  0  0  0  0  0  0
   -2.1621   -0.9017    0.9178 C   0  0  0  0  0  0  0  0  0  0  0  0
   -0.7827   -0.7711    0.7986 C   0  0  0  0  0  0  0  0  0  0  0  0
  1  2  1  0
  2  3  1  0
  2  4  1  0
  4  5  1  0
  6  5  1  1
  6  7  1  0
  6  8  1  0
  8  9  1  0
  9 10  1  0
 10 11  2  0
 11 12  1  0
 12 13  2  0
 13 14  1  0
 14 15  1  0
 15 16  1  0
 15 17  2  0
 13 18  1  0
 18 19  2  0
 19 10  1  0
M  END
>  <zinc_id>  (450) 
ZINC000000113415

>  <smiles>  (450) 
CC(C)NC[C@H](O)COc1ccc(CC(N)=O)cc1

$$$$

     RDKit          3D

 31 35  0  0  0  0  0  0  0  0999 V2000
   -3.9762    2.7369    0.4529 C   0  0  0  0  0  0  0  0  0  0  0  0
   -4.8656    1.6385   -0.0774 C   0  0  0  0  0  0  0  0  0  0  0  0
   -4.7585    0.3987    0.7973 C   0  0  1  0  0  0  0  0  0  0  0  0
   -4.9704    0.6968    2.1387 O   0  0  0  0  0  0  0  0  0  0  0  0
   -5.7815   -0.5628    0.3276 C   0  0  0  0  0  0  0  0  0  0  0  0
   -6.7792   -0.2233   -0.3659 O   0  0  0  0  0  0  0  0  0  0  0  0
   -5.5999   -1.9341    0.5168 O   0  0  0  0  0  0  0  0  0  0  0  0
   -4.3123   -2.4911    0.6667 C   0  0  0  0  0  0  0  0  0  0  0  0
   -3.3470   -1.4983    0.1134 C   0  0  0  0  0  0  0  0  0  0  0  0
   -3.4029   -0.2069    0.6216 C   0  0  0  0  0  0  0  0  0  0  0  0
   -2.2599    0.5636    0.4770 C   0  0  0  0  0  0  0  0  0  0  0  0
   -1.1193    0.0263   -0.1004 C   0  0  0  0  0  0  0  0  0  0  0  0
   -1.2747   -1.0510   -0.9026 N   0  0  0  0  0  0  0  0  0  0  0  0
   -2.3066   -1.8881   -0.7211 C   0  0  0  0  0  0  0  0  0  0  0  0
   -2.2979   -3.0696   -1.1794 O   0  0  0  0  0  0  0  0  0  0  0  0
   -0.0061   -1.3009   -1.5670 C   0  0  0  0  0  0  0  0  0  0  0  0
    0.9646   -0.7854   -0.5499 C   0  0  0  0  0  0  0  0  0  0  0  0
    2.3487   -0.8179   -0.4337 C   0  0  0  0  0  0  0  0  0  0  0  0
    3.0824    0.2801   -0.0044 C   0  0  0  0  0  0  0  0  0  0  0  0
    2.3639    1.2560    0.6756 C   0  0  0  0  0  0  0  0  0  0  0  0
    3.0537    2.4085    0.9883 C   0  0  0  0  0  0  0  0  0  0  0  0
    4.2324    2.7528    0.3385 C   0  0  0  0  0  0  0  0  0  0  0  0
    4.8384    1.8625   -0.5328 C   0  0  0  0  0  0  0  0  0  0  0  0
    5.5948    2.3524   -1.5996 O   0  0  0  0  0  0  0  0  0  0  0  0
    4.3485    0.5642   -0.5038 C   0  0  0  0  0  0  0  0  0  0  0  0
    5.0517   -0.4575   -1.3033 C   0  0  0  0  0  0  0  0  0  0  0  0
    6.4017   -0.7027   -0.8670 N   0  0  0  0  0  0  0  0  0  0  0  0
    6.8141    0.1344    0.2299 C   0  0  0  0  0  0  0  0  0  0  0  0
    6.6262   -2.1177   -0.6091 C   0  0  0  0  0  0  0  0  0  0  0  0
    1.0197    1.1469    0.8151 N   0  0  0  0  0  0  0  0  0  0  0  0
    0.3174    0.2890    0.0482 C   0  0  0  0  0  0  0  0  0  0  0  0
  1  2  1  0
  3  2  1  6
  3  4  1  0
  3  5  1  0
  5  6  2  0
  5  7  1  0
  7  8  1  0
  8  9  1  0
  9 10  2  0
 10 11  1  0
 11 12  2  0
 12 13  1  0
 13 14  1  0
 14 15  2  0
 13 16  1  0
 16 17  1  0
 17 18  2  0
 18 19  1  0
 19 20  2  0
 20 21  1  0
 21 22  2  0
 22 23  1  0
 23 24  1  0
 23 25  2  0
 25 26  1  0
 26 27  1  0
 27 28  1  0
 27 29  1  0
 20 30  1  0
 30 31  2  0
 10  3  1  0
 31 12  1  0
 14  9  1  0
 31 17  1  0
 25 19  1  0
M  END
>  <zinc_id>  (451) 
ZINC000001611274

>  <smiles>  (451) 
CC[C@@]1(O)C(=O)OCc2c1cc1n(c2=O)Cc2cc3c(CN(C)C)c(O)ccc3nc2-1

$$$$

     RDKit          3D

 14 15  0  0  0  0  0  0  0  0999 V2000
   -3.2774    2.0468   -0.2489 C   0  0  0  0  0  0  0  0  0  0  0  0
   -2.5145    0.9163    0.3556 C   0  0  0  0  0  0  0  0  0  0  0  0
   -3.0649   -0.3494    0.5190 C   0  0  0  0  0  0  0  0  0  0  0  0
   -2.3128   -1.4745    0.2040 C   0  0  0  0  0  0  0  0  0  0  0  0
   -0.9787   -1.3519   -0.1625 C   0  0  0  0  0  0  0  0  0  0  0  0
   -0.5080   -2.1107   -1.0640 O   0  0  0  0  0  0  0  0  0  0  0  0
   -0.3914   -0.1715    0.1505 N   0  0  0  0  0  0  0  0  0  0  0  0
    1.0164   -0.1072   -0.1156 C   0  0  0  0  0  0  0  0  0  0  0  0
    1.4482    0.7933   -1.0793 C   0  0  0  0  0  0  0  0  0  0  0  0
    2.7808    0.9134   -1.3852 C   0  0  0  0  0  0  0  0  0  0  0  0
    3.7104    0.3931   -0.4991 C   0  0  0  0  0  0  0  0  0  0  0  0
    3.2619    0.0066    0.7515 C   0  0  0  0  0  0  0  0  0  0  0  0
    1.9560   -0.4599    0.8470 C   0  0  0  0  0  0  0  0  0  0  0  0
   -1.1260    0.9556    0.3123 C   0  0  0  0  0  0  0  0  0  0  0  0
  1  2  1  0
  2  3  1  0
  3  4  2  0
  4  5  1  0
  5  6  2  0
  5  7  1  0
  7  8  1  0
  8  9  2  0
  9 10  1  0
 10 11  2  0
 11 12  1  0
 12 13  2  0
  7 14  1  0
 14  2  2  0
 13  8  1  0
M  END
>  <zinc_id>  (452) 
ZINC000000001958

>  <smiles>  (452) 
Cc1ccc(=O)n(-c2ccccc2)c1

$$$$

     RDKit          3D

 16 16  0  0  0  0  0  0  0  0999 V2000
   -0.3389   -2.1791    0.9949 C   0  0  0  0  0  0  0  0  0  0  0  0
    0.0494   -2.1207    0.3218 C   0  0  0  0  0  0  0  0  0  0  0  0
    0.5187   -0.6260   -0.1749 C   0  0  1  0  0  0  0  0  0  0  0  0
   -0.7559    0.0920    0.5073 C   0  0  0  0  0  0  0  0  0  0  0  0
   -0.7055    1.4801    0.3938 C   0  0  0  0  0  0  0  0  0  0  0  0
   -1.7969    2.2118   -0.0596 C   0  0  0  0  0  0  0  0  0  0  0  0
   -2.9909    1.5719   -0.3781 C   0  0  0  0  0  0  0  0  0  0  0  0
   -3.1244    0.2386   -0.0947 C   0  0  0  0  0  0  0  0  0  0  0  0
   -4.2729   -0.3915   -0.5905 O   0  0  0  0  0  0  0  0  0  0  0  0
   -1.9787   -0.4631    0.1470 C   0  0  0  0  0  0  0  0  0  0  0  0
    1.4803   -0.3926    1.2341 C   0  0  1  0  0  0  0  0  0  0  0  0
    2.4245   -1.6803    0.8800 C   0  0  0  0  0  0  0  0  0  0  0  0
    2.5321    0.6462    0.5328 C   0  0  0  0  0  0  0  0  0  0  0  0
    2.6086    0.3671   -0.8424 N   0  0  0  0  0  0  0  0  0  0  0  0
    2.6389    1.6423   -1.5548 C   0  0  0  0  0  0  0  0  0  0  0  0
    3.7115   -0.3966   -1.3168 C   0  0  0  0  0  0  0  0  0  0  0  0
  1  2  1  0
  3  2  1  1
  3  4  1  0
  4  5  2  0
  5  6  1  0
  6  7  2  0
  7  8  1  0
  8  9  1  0
  8 10  2  0
  3 11  1  0
 11 12  1  6
 11 13  1  0
 13 14  1  0
 14 15  1  0
 14 16  1  0
 10  4  1  0
M  END
>  <zinc_id>  (453) 
ZINC000000020783

>  <smiles>  (453) 
CC[C@@H](c1cccc(O)c1)[C@@H](C)CN(C)C

$$$$

     RDKit          3D

  9  8  0  0  0  0  0  0  0  0999 V2000
   -1.1215    0.1954   -0.3595 C   0  0  0  0  0  0  0  0  0  0  0  0
   -1.1546    0.0249   -0.2796 C   0  0  0  0  0  0  0  0  0  0  0  0
   -0.6905   -1.1803   -0.9478 C   0  0  0  0  0  0  0  0  0  0  0  0
   -2.1104   -0.1779    1.2195 S   0  0  0  0  0  0  0  0  0  0  0  0
    0.0826    0.9647    0.2467 C   0  0  2  0  0  0  0  0  0  0  0  0
    0.4457    1.3493   -1.2429 N   0  0  0  0  0  0  0  0  0  0  0  0
    1.1248   -0.2586    0.3480 C   0  0  0  0  0  0  0  0  0  0  0  0
    1.7440   -0.6350   -0.6144 O   0  0  0  0  0  0  0  0  0  0  0  0
    1.6798   -0.2826    1.6300 O   0  0  0  0  0  0  0  0  0  0  0  0
  1  2  1  0
  2  3  1  0
  2  4  1  0
  5  2  1  6
  5  6  1  0
  5  7  1  0
  7  8  2  0
  7  9  1  0
M  END
>  <zinc_id>  (454) 
ZINC000000114124

>  <smiles>  (454) 
CC(C)(S)[C@H](N)C(=O)O

$$$$

     RDKit          3D

  9  8  0  0  0  0  0  0  0  0999 V2000
   -1.8041   -1.2171    0.1990 C   0  0  0  0  0  0  0  0  0  0  0  0
   -1.0714   -0.2659    0.1131 C   0  0  0  0  0  0  0  0  0  0  0  0
   -1.2957    0.6042    1.3449 C   0  0  0  0  0  0  0  0  0  0  0  0
   -1.0456    0.6560   -1.4151 S   0  0  0  0  0  0  0  0  0  0  0  0
    0.4456   -0.8738    0.3381 C   0  0  1  0  0  0  0  0  0  0  0  0
    0.5040   -1.4290   -1.1422 N   0  0  0  0  0  0  0  0  0  0  0  0
    1.2253    0.4789   -0.0834 C   0  0  0  0  0  0  0  0  0  0  0  0
    2.3837    0.3601    0.4355 O   0  0  0  0  0  0  0  0  0  0  0  0
    0.6583    1.6866    0.2101 O   0  0  0  0  0  0  0  0  0  0  0  0
  1  2  1  0
  2  3  1  0
  2  4  1  0
  5  2  1  6
  5  6  1  0
  5  7  1  0
  7  8  2  0
  7  9  1  0
M  END
>  <zinc_id>  (455) 
ZINC000000114127

>  <smiles>  (455) 
CC(C)(S)[C@@H](N)C(=O)O

$$$$

     RDKit          3D

 23 26  0  0  0  0  0  0  0  0999 V2000
    4.3197   -1.2452    1.6435 C   0  0  0  0  0  0  0  0  0  0  0  0
    3.7065   -1.8917    0.5069 N   0  0  0  0  0  0  0  0  0  0  0  0
    3.7157   -1.0682   -0.6761 C   0  0  0  0  0  0  0  0  0  0  0  0
    2.7664    0.0943   -0.5982 C   0  0  0  0  0  0  0  0  0  0  0  0
    1.3962   -0.4718   -0.4121 C   0  0  0  0  0  0  0  0  0  0  0  0
    0.3047    0.2239   -0.7377 C   0  0  0  0  0  0  0  0  0  0  0  0
   -0.8703   -0.6325   -0.9603 C   0  0  0  0  0  0  0  0  0  0  0  0
   -0.8292   -1.8930   -1.4409 N   0  0  0  0  0  0  0  0  0  0  0  0
   -2.0089   -2.4783   -1.1198 C   0  0  0  0  0  0  0  0  0  0  0  0
   -2.8910   -1.5004   -0.6755 C   0  0  0  0  0  0  0  0  0  0  0  0
   -4.0323   -1.6823    0.2307 C   0  0  0  0  0  0  0  0  0  0  0  0
   -3.8494   -2.2179    1.3648 O   0  0  0  0  0  0  0  0  0  0  0  0
   -2.1916   -0.3505   -0.8416 N   0  0  0  0  0  0  0  0  0  0  0  0
   -2.8086    0.9465   -0.7537 C   0  0  0  0  0  0  0  0  0  0  0  0
   -2.3092    1.7767    0.3951 C   0  0  0  0  0  0  0  0  0  0  0  0
   -0.9324    2.3102    0.1496 C   0  0  0  0  0  0  0  0  0  0  0  0
   -0.8032    3.4885    0.8725 C   0  0  0  0  0  0  0  0  0  0  0  0
    0.4202    4.0023    1.2382 C   0  0  0  0  0  0  0  0  0  0  0  0
    1.5491    3.2540    0.9309 C   0  0  0  0  0  0  0  0  0  0  0  0
    1.4275    2.0275    0.2901 C   0  0  0  0  0  0  0  0  0  0  0  0
    0.2037    1.5901   -0.2036 C   0  0  0  0  0  0  0  0  0  0  0  0
    1.3213   -1.9265   -0.0794 C   0  0  0  0  0  0  0  0  0  0  0  0
    2.3955   -2.3555    0.8764 C   0  0  0  0  0  0  0  0  0  0  0  0
  1  2  1  0
  2  3  1  0
  3  4  1  0
  4  5  1  0
  5  6  2  3
  6  7  1  0
  7  8  2  0
  8  9  1  0
  9 10  2  0
 10 11  1  0
 11 12  2  0
 10 13  1  0
 13 14  1  0
 14 15  1  0
 15 16  1  0
 16 17  2  0
 17 18  1  0
 18 19  2  0
 19 20  1  0
 20 21  2  0
  5 22  1  0
 22 23  1  0
 23  2  1  0
 21  6  1  0
 13  7  1  0
 21 16  1  0
M  END
>  <zinc_id>  (456) 
ZINC000011726211

>  <smiles>  (456) 
CN1CCC(=C2c3ccccc3CCn3c(C=O)cnc32)CC1

$$$$

     RDKit          3D

 10 11  0  0  0  0  0  0  0  0999 V2000
   -1.5423    1.9292   -0.3554 O   0  0  0  0  0  0  0  0  0  0  0  0
   -1.1192    0.7906    0.0012 C   0  0  0  0  0  0  0  0  0  0  0  0
   -2.0119   -0.2233   -0.0818 N   0  0  0  0  0  0  0  0  0  0  0  0
   -1.5519   -1.4397    0.2948 C   0  0  0  0  0  0  0  0  0  0  0  0
   -0.2347   -1.7196    0.3701 N   0  0  0  0  0  0  0  0  0  0  0  0
    0.5939   -0.8134   -0.2045 C   0  0  0  0  0  0  0  0  0  0  0  0
    1.9360   -0.7740   -0.2215 N   0  0  0  0  0  0  0  0  0  0  0  0
    2.3421    0.4401   -0.5919 N   0  0  0  0  0  0  0  0  0  0  0  0
    1.3743    1.2853   -0.1605 C   0  0  0  0  0  0  0  0  0  0  0  0
    0.2137    0.5248   -0.2301 C   0  0  0  0  0  0  0  0  0  0  0  0
  1  2  2  0
  2  3  1  0
  3  4  1  0
  4  5  2  0
  5  6  1  0
  6  7  1  0
  7  8  1  0
  8  9  2  0
  9 10  1  0
 10  2  1  0
 10  6  2  0
M  END
>  <zinc_id>  (457) 
ZINC000013298313

>  <smiles>  (457) 
O=c1[nH]cnc2[nH]ncc12

$$$$

     RDKit          3D

 24 26  0  0  0  0  0  0  0  0999 V2000
   -5.5644   -0.3198    0.1143 C   0  0  0  0  0  0  0  0  0  0  0  0
   -4.2692   -0.5193    0.0296 C   0  0  0  0  0  0  0  0  0  0  0  0
   -3.4512    0.5271    0.1254 C   0  0  0  0  0  0  0  0  0  0  0  0
   -3.9448    1.8529    0.5234 C   0  0  0  0  0  0  0  0  0  0  0  0
   -3.2849    2.8960    0.3569 O   0  0  0  0  0  0  0  0  0  0  0  0
   -5.3302    2.0366    0.4128 O   0  0  0  0  0  0  0  0  0  0  0  0
   -2.0403    0.4635   -0.1243 N   0  0  0  0  0  0  0  0  0  0  0  0
   -0.7993    0.2948    0.6147 C   0  0  0  0  0  0  0  0  0  0  0  0
   -0.2242    1.2355    1.2482 O   0  0  0  0  0  0  0  0  0  0  0  0
   -0.1555   -0.0596   -0.8436 C   0  0  1  0  0  0  0  0  0  0  0  0
    0.4685   -1.4715   -0.4075 N   0  0  0  0  0  0  0  0  0  0  0  0
    1.7573   -1.3934    0.1496 C   0  0  0  0  0  0  0  0  0  0  0  0
    1.9679   -0.5673    0.9955 O   0  0  0  0  0  0  0  0  0  0  0  0
    2.9942   -1.9034   -0.8017 C   0  0  2  0  0  0  0  0  0  0  0  0
    3.6695   -2.7230    0.4102 N   0  0  0  0  0  0  0  0  0  0  0  0
    3.9225   -0.5664   -0.5721 C   0  0  0  0  0  0  0  0  0  0  0  0
    3.7948    0.3779   -1.5580 C   0  0  0  0  0  0  0  0  0  0  0  0
    4.2244    1.6634   -1.2517 C   0  0  0  0  0  0  0  0  0  0  0  0
    4.4425    1.9704    0.0852 C   0  0  0  0  0  0  0  0  0  0  0  0
    4.8161    0.9582    0.9616 C   0  0  0  0  0  0  0  0  0  0  0  0
    4.4195   -0.3292    0.6457 C   0  0  0  0  0  0  0  0  0  0  0  0
   -1.7297   -0.6353   -1.1365 C   0  0  1  0  0  0  0  0  0  0  0  0
   -1.9463   -1.9698    0.2135 S   0  0  0  0  0  0  0  0  0  0  0  0
   -3.7371   -1.8184    0.5585 C   0  0  0  0  0  0  0  0  0  0  0  0
  1  2  1  0
  2  3  2  0
  3  4  1  0
  4  5  2  0
  4  6  1  0
  3  7  1  0
  7  8  1  0
  8  9  2  0
  8 10  1  0
 10 11  1  1
 11 12  1  0
 12 13  2  0
 14 12  1  1
 14 15  1  0
 14 16  1  0
 16 17  2  0
 17 18  1  0
 18 19  2  0
 19 20  1  0
 20 21  2  0
 10 22  1  0
 22 23  1  1
 23 24  1  0
 24  2  1  0
 22  7  1  0
 21 16  1  0
M  END
>  <zinc_id>  (458) 
ZINC000003830500

>  <smiles>  (458) 
CC1=C(C(=O)O)N2C(=O)[C@@H](NC(=O)[C@H](N)c3ccccc3)[C@H]2SC1

$$$$

     RDKit          3D

 23 25  0  0  0  0  0  0  0  0999 V2000
   -3.9209    1.9496    0.5091 C   0  0  0  0  0  0  0  0  0  0  0  0
   -3.6968    0.7102    0.8901 C   0  0  0  0  0  0  0  0  0  0  0  0
   -4.7479    0.2742    1.7978 C   0  0  0  0  0  0  0  0  0  0  0  0
   -2.0033    0.5061    1.2746 S   0  0  0  0  0  0  0  0  0  0  0  0
   -1.5799   -0.6667   -0.1794 C   0  0  2  0  0  0  0  0  0  0  0  0
   -0.3670    0.1753   -1.0038 C   0  0  2  0  0  0  0  0  0  0  0  0
    0.3740    0.6950    0.3157 N   0  0  0  0  0  0  0  0  0  0  0  0
    1.7327    0.2506    0.2259 C   0  0  0  0  0  0  0  0  0  0  0  0
    2.3390    0.2855   -0.8887 O   0  0  0  0  0  0  0  0  0  0  0  0
    2.4145   -0.4868    1.3366 C   0  0  0  0  0  0  0  0  0  0  0  0
    3.8706   -0.6162    1.0130 C   0  0  0  0  0  0  0  0  0  0  0  0
    4.2044   -1.4114   -0.0730 C   0  0  0  0  0  0  0  0  0  0  0  0
    5.2212   -1.1035   -0.9536 C   0  0  0  0  0  0  0  0  0  0  0  0
    6.0391   -0.0330   -0.6388 C   0  0  0  0  0  0  0  0  0  0  0  0
    5.6220    0.9130    0.2868 C   0  0  0  0  0  0  0  0  0  0  0  0
    4.6452    0.5213    1.1862 C   0  0  0  0  0  0  0  0  0  0  0  0
   -1.4836    1.3440   -1.0332 C   0  0  0  0  0  0  0  0  0  0  0  0
   -1.3719    2.5414   -1.2415 O   0  0  0  0  0  0  0  0  0  0  0  0
   -2.4216    0.2384   -1.0678 N   0  0  0  0  0  0  0  0  0  0  0  0
   -3.8936   -0.1063   -0.5518 C   0  0  1  0  0  0  0  0  0  0  0  0
   -3.5365   -1.5964    0.0209 C   0  0  0  0  0  0  0  0  0  0  0  0
   -3.5755   -1.8110    1.2076 O   0  0  0  0  0  0  0  0  0  0  0  0
   -3.8643   -2.5735   -0.8823 O   0  0  0  0  0  0  0  0  0  0  0  0
  1  2  1  0
  2  3  1  0
  2  4  1  0
  5  4  1  1
  5  6  1  0
  6  7  1  1
  7  8  1  0
  8  9  2  0
  8 10  1  0
 10 11  1  0
 11 12  2  0
 12 13  1  0
 13 14  2  0
 14 15  1  0
 15 16  2  0
  6 17  1  0
 17 18  2  0
 17 19  1  0
 19 20  1  0
 20 21  1  1
 21 22  2  0
 21 23  1  0
 20  2  1  0
 19  5  1  0
 16 11  1  0
M  END
>  <zinc_id>  (459) 
ZINC000003871701

>  <smiles>  (459) 
CC1(C)S[C@@H]2[C@H](NC(=O)Cc3ccccc3)C(=O)N2[C@H]1C(=O)O

$$$$

     RDKit          3D

  7  7  0  0  0  0  0  0  0  0999 V2000
    0.9443    1.8640   -0.5513 C   0  0  0  0  0  0  0  0  0  0  0  0
    0.1788    0.7567   -0.0105 N   0  0  0  0  0  0  0  0  0  0  0  0
   -1.1513    0.8122    0.2323 C   0  0  0  0  0  0  0  0  0  0  0  0
   -1.7179   -0.4145   -0.0938 C   0  0  0  0  0  0  0  0  0  0  0  0
   -0.6803   -1.2740    0.0556 N   0  0  0  0  0  0  0  0  0  0  0  0
    0.4685   -0.5661   -0.0427 C   0  0  0  0  0  0  0  0  0  0  0  0
    1.9579   -1.1783   -0.2533 S   0  0  0  0  0  0  0  0  0  0  0  0
  1  2  1  0
  2  3  1  0
  3  4  2  0
  4  5  1  0
  5  6  1  0
  6  7  2  0
  6  2  1  0
M  END
>  <zinc_id>  (460) 
ZINC000001187543

>  <smiles>  (460) 
Cn1cc[nH]c1=S

$$$$

     RDKit          3D

 29 31  0  0  0  0  0  0  0  0999 V2000
   -5.4542   -0.5678    0.4296 C   0  0  0  0  0  0  0  0  0  0  0  0
   -4.6930   -1.3540    0.4603 O   0  0  0  0  0  0  0  0  0  0  0  0
   -3.3086   -1.2304    0.3296 C   0  0  0  0  0  0  0  0  0  0  0  0
   -2.5694   -1.9764   -0.5801 C   0  0  0  0  0  0  0  0  0  0  0  0
   -1.2292   -1.6431   -0.7380 C   0  0  0  0  0  0  0  0  0  0  0  0
   -0.8219   -0.3305   -0.5474 C   0  0  0  0  0  0  0  0  0  0  0  0
   -1.7886    0.5776   -0.2229 C   0  0  0  0  0  0  0  0  0  0  0  0
   -1.9153    1.8118   -0.7943 O   0  0  0  0  0  0  0  0  0  0  0  0
   -2.8468    2.1190   -1.7995 C   0  0  0  0  0  0  0  0  0  0  0  0
   -2.8980    0.0928    0.4600 C   0  0  0  0  0  0  0  0  0  0  0  0
   -3.3043    0.8863    1.5251 O   0  0  0  0  0  0  0  0  0  0  0  0
   -2.8447    0.4718    2.8115 C   0  0  0  0  0  0  0  0  0  0  0  0
    0.4089    0.3931   -0.7653 C   0  0  0  0  0  0  0  0  0  0  0  0
    0.3362    1.5068    0.0719 C   0  0  0  0  0  0  0  0  0  0  0  0
    1.1621    2.6228   -0.0487 C   0  0  0  0  0  0  0  0  0  0  0  0
    2.5381    2.5301    0.1389 C   0  0  0  0  0  0  0  0  0  0  0  0
    3.2003    3.5891    0.7260 O   0  0  0  0  0  0  0  0  0  0  0  0
    2.9193    4.8960    0.2520 C   0  0  0  0  0  0  0  0  0  0  0  0
    3.3313    1.4267   -0.1597 C   0  0  0  0  0  0  0  0  0  0  0  0
    4.4072    1.3545    0.4963 O   0  0  0  0  0  0  0  0  0  0  0  0
    2.9119    0.2512   -0.7743 C   0  0  0  0  0  0  0  0  0  0  0  0
    1.6177   -0.1795   -1.0535 C   0  0  0  0  0  0  0  0  0  0  0  0
    1.9605   -1.7504   -1.1612 C   0  0  1  0  0  0  0  0  0  0  0  0
    1.2373   -2.0966    0.2017 N   0  0  0  0  0  0  0  0  0  0  0  0
    2.2013   -2.7216    1.0459 C   0  0  0  0  0  0  0  0  0  0  0  0
    1.9638   -3.8919    1.9013 C   0  0  0  0  0  0  0  0  0  0  0  0
    3.2160   -2.0110    1.3181 O   0  0  0  0  0  0  0  0  0  0  0  0
    0.6758   -2.0722   -2.1309 C   0  0  0  0  0  0  0  0  0  0  0  0
   -0.4137   -2.7043   -1.3924 C   0  0  0  0  0  0  0  0  0  0  0  0
  1  2  1  0
  2  3  1  0
  3  4  2  0
  4  5  1  0
  5  6  2  0
  6  7  1  0
  7  8  1  0
  8  9  1  0
  7 10  2  0
 10 11  1  0
 11 12  1  0
  6 13  1  0
 13 14  2  0
 14 15  1  0
 15 16  2  0
 16 17  1  0
 17 18  1  0
 16 19  1  0
 19 20  2  0
 19 21  1  0
 21 22  2  0
 22 23  1  0
 23 24  1  1
 24 25  1  0
 25 26  1  0
 25 27  2  0
 23 28  1  0
 28 29  1  0
 10  3  1  0
 22 13  1  0
 29  5  1  0
M  END
>  <zinc_id>  (461) 
ZINC000000621853

>  <smiles>  (461) 
COc1cc2c(c(OC)c1OC)-c1ccc(OC)c(=O)cc1[C@@H](NC(C)=O)CC2

$$$$

     RDKit          3D

 27 29  0  0  0  0  0  0  0  0999 V2000
   -5.3682    2.5982    1.4431 C   0  0  0  0  0  0  0  0  0  0  0  0
   -5.6530    1.8354   -0.1408 S   0  0  0  0  0  0  0  0  0  0  0  0
   -5.1582    2.7938   -1.1864 O   0  0  0  0  0  0  0  0  0  0  0  0
   -7.1341    1.6978   -0.2951 O   0  0  0  0  0  0  0  0  0  0  0  0
   -4.8352    0.2817   -0.2526 C   0  0  0  0  0  0  0  0  0  0  0  0
   -4.3718   -0.3850    0.8760 C   0  0  0  0  0  0  0  0  0  0  0  0
   -3.1851   -1.1103    0.8638 C   0  0  0  0  0  0  0  0  0  0  0  0
   -2.3878   -1.1176   -0.2758 C   0  0  0  0  0  0  0  0  0  0  0  0
   -0.9280   -0.9808   -0.1938 C   0  0  0  0  0  0  0  0  0  0  0  0
   -0.4468    0.1897   -0.1143 O   0  0  0  0  0  0  0  0  0  0  0  0
   -0.0395   -1.9681   -0.7290 N   0  0  0  0  0  0  0  0  0  0  0  0
    1.3314   -1.8450   -0.3864 C   0  0  0  0  0  0  0  0  0  0  0  0
    1.8885   -2.8386    0.3837 C   0  0  0  0  0  0  0  0  0  0  0  0
    3.2748   -2.9148    0.4049 C   0  0  0  0  0  0  0  0  0  0  0  0
    4.0484   -1.8123    0.0665 C   0  0  0  0  0  0  0  0  0  0  0  0
    5.7513   -2.0010   -0.3309 Cl  0  0  0  0  0  0  0  0  0  0  0  0
    3.3982   -0.6437   -0.3088 C   0  0  0  0  0  0  0  0  0  0  0  0
    4.1603    0.5917   -0.1599 C   0  0  0  0  0  0  0  0  0  0  0  0
    3.9136    1.5856   -1.0977 C   0  0  0  0  0  0  0  0  0  0  0  0
    4.4983    2.8065   -0.8785 C   0  0  0  0  0  0  0  0  0  0  0  0
    5.2738    2.9745    0.2418 C   0  0  0  0  0  0  0  0  0  0  0  0
    5.1017    2.1267    1.3236 C   0  0  0  0  0  0  0  0  0  0  0  0
    4.3964    0.9992    1.1106 N   0  0  0  0  0  0  0  0  0  0  0  0
    2.0140   -0.6355   -0.4201 C   0  0  0  0  0  0  0  0  0  0  0  0
   -3.0800   -0.8846   -1.4593 C   0  0  0  0  0  0  0  0  0  0  0  0
   -2.1967   -1.1852   -2.9446 Cl  0  0  0  0  0  0  0  0  0  0  0  0
   -4.2661   -0.1582   -1.4428 C   0  0  0  0  0  0  0  0  0  0  0  0
  1  2  1  0
  2  3  2  0
  2  4  2  0
  2  5  1  0
  5  6  2  0
  6  7  1  0
  7  8  2  0
  8  9  1  0
  9 10  2  0
  9 11  1  0
 11 12  1  0
 12 13  2  0
 13 14  1  0
 14 15  2  0
 15 16  1  0
 15 17  1  0
 17 18  1  0
 18 19  2  0
 19 20  1  0
 20 21  2  0
 21 22  1  0
 22 23  2  0
 17 24  2  0
  8 25  1  0
 25 26  1  0
 25 27  2  0
 27  5  1  0
 24 12  1  0
 23 18  1  0
M  END
>  <zinc_id>  (462) 
ZINC000040899447

>  <smiles>  (462) 
CS(=O)(=O)c1ccc(C(=O)Nc2ccc(Cl)c(-c3ccccn3)c2)c(Cl)c1

$$$$

     RDKit          3D

 31 34  0  0  0  0  0  0  0  0999 V2000
    7.7396   -2.1861    0.0403 O   0  0  0  0  0  0  0  0  0  0  0  0
    7.4464   -1.1167    0.1531 C   0  0  0  0  0  0  0  0  0  0  0  0
    8.0689   -0.0938   -0.5594 O   0  0  0  0  0  0  0  0  0  0  0  0
    6.1493   -0.8584    0.8061 C   0  0  0  0  0  0  0  0  0  0  0  0
    5.2724    0.0184   -0.3270 C   0  0  2  0  0  0  0  0  0  0  0  0
    5.0076    1.1230    0.7237 O   0  0  0  0  0  0  0  0  0  0  0  0
    3.8506   -0.7888    0.0662 C   0  0  0  0  0  0  0  0  0  0  0  0
    2.8365    0.5438   -0.1313 C   0  0  2  0  0  0  0  0  0  0  0  0
    2.7676    0.7418    1.4078 O   0  0  0  0  0  0  0  0  0  0  0  0
    1.4776   -0.3989   -0.1021 C   0  0  0  0  0  0  0  0  0  0  0  0
    0.5060    0.0548   -0.8540 C   0  0  0  0  0  0  0  0  0  0  0  0
   -0.7222    0.6804   -0.4751 C   0  0  0  0  0  0  0  0  0  0  0  0
   -0.9003    2.0574   -0.5662 C   0  0  0  0  0  0  0  0  0  0  0  0
    0.2768    2.8676   -0.1203 C   0  0  0  0  0  0  0  0  0  0  0  0
   -0.0870    4.2895    0.3821 C   0  0  0  0  0  0  0  0  0  0  0  0
    0.1175    3.2367    1.3829 C   0  0  0  0  0  0  0  0  0  0  0  0
   -2.1461    2.5739   -0.6718 N   0  0  0  0  0  0  0  0  0  0  0  0
   -3.2537    1.8488   -0.3654 C   0  0  0  0  0  0  0  0  0  0  0  0
   -4.4260    2.4714    0.0509 C   0  0  0  0  0  0  0  0  0  0  0  0
   -5.2678    1.8488    0.9484 C   0  0  0  0  0  0  0  0  0  0  0  0
   -4.8279    0.7684    1.7088 C   0  0  0  0  0  0  0  0  0  0  0  0
   -3.8310    0.0050    1.1128 C   0  0  0  0  0  0  0  0  0  0  0  0
   -3.0531    0.5853    0.1176 C   0  0  0  0  0  0  0  0  0  0  0  0
   -1.8857   -0.0561   -0.2812 C   0  0  0  0  0  0  0  0  0  0  0  0
   -1.8895   -1.5240   -0.3449 C   0  0  0  0  0  0  0  0  0  0  0  0
   -1.9963   -2.2447    0.8318 C   0  0  0  0  0  0  0  0  0  0  0  0
   -2.7908   -3.3830    0.9352 C   0  0  0  0  0  0  0  0  0  0  0  0
   -3.7026   -3.6786   -0.0721 C   0  0  0  0  0  0  0  0  0  0  0  0
   -5.0069   -3.9774    0.2018 F   0  0  0  0  0  0  0  0  0  0  0  0
   -3.2999   -3.2427   -1.3296 C   0  0  0  0  0  0  0  0  0  0  0  0
   -2.4300   -2.1657   -1.4545 C   0  0  0  0  0  0  0  0  0  0  0  0
  1  2  2  0
  2  3  1  0
  2  4  1  0
  5  4  1  1
  5  6  1  0
  5  7  1  0
  8  7  1  1
  8  9  1  0
  8 10  1  0
 10 11  2  0
 11 12  1  0
 12 13  2  0
 13 14  1  0
 14 15  1  0
 15 16  1  0
 13 17  1  0
 17 18  2  0
 18 19  1  0
 19 20  2  0
 20 21  1  0
 21 22  2  0
 22 23  1  0
 23 24  2  0
 24 25  1  0
 25 26  2  0
 26 27  1  0
 27 28  2  0
 28 29  1  0
 28 30  1  0
 30 31  2  0
 24 12  1  0
 31 25  1  0
 16 14  1  0
 23 18  1  0
M  END
>  <zinc_id>  (463) 
ZINC000001534965

>  <smiles>  (463) 
O=C(O)C[C@H](O)C[C@H](O)/C=C/c1c(C2CC2)nc2ccccc2c1-c1ccc(F)cc1

$$$$

     RDKit          3D

 22 22  0  0  0  0  0  0  0  0999 V2000
    1.3624   -1.3600    0.5988 C   0  0  0  0  0  0  0  0  0  0  0  0
    0.5101   -0.8222   -0.5079 C   0  0  0  0  0  0  0  0  0  0  0  0
   -0.9362   -0.8571   -0.2445 C   0  0  0  0  0  0  0  0  0  0  0  0
   -1.5973    0.1693    0.2441 C   0  0  0  0  0  0  0  0  0  0  0  0
   -3.0530    0.0273    0.3526 C   0  0  0  0  0  0  0  0  0  0  0  0
   -3.6872   -0.6704   -0.5853 C   0  0  0  0  0  0  0  0  0  0  0  0
   -2.8953   -1.2526   -1.7106 C   0  0  0  0  0  0  0  0  0  0  0  0
   -5.1563   -0.7215   -0.7041 C   0  0  0  0  0  0  0  0  0  0  0  0
   -5.8194    0.1854    0.3033 C   0  0  0  0  0  0  0  0  0  0  0  0
   -5.1462    0.0738    1.6646 C   0  0  0  0  0  0  0  0  0  0  0  0
   -3.7060    0.5333    1.5780 C   0  0  0  0  0  0  0  0  0  0  0  0
   -2.9587    0.0724    2.8100 C   0  0  0  0  0  0  0  0  0  0  0  0
   -3.6417    2.0458    1.5316 C   0  0  0  0  0  0  0  0  0  0  0  0
    1.0454    0.0367   -1.3764 C   0  0  0  0  0  0  0  0  0  0  0  0
    2.4906    0.2776   -1.2770 C   0  0  0  0  0  0  0  0  0  0  0  0
    3.0120    1.3338   -0.6976 C   0  0  0  0  0  0  0  0  0  0  0  0
    4.0350    1.2677    0.3490 C   0  0  0  0  0  0  0  0  0  0  0  0
    3.6389    1.8501    1.6677 C   0  0  0  0  0  0  0  0  0  0  0  0
    4.9927    0.3479    0.2638 C   0  0  0  0  0  0  0  0  0  0  0  0
    5.5613    0.1439   -1.0741 C   0  0  0  0  0  0  0  0  0  0  0  0
    5.5747   -0.9836   -1.6197 O   0  0  0  0  0  0  0  0  0  0  0  0
    6.3740    1.1452   -1.5662 O   0  0  0  0  0  0  0  0  0  0  0  0
  1  2  1  0
  2  3  1  0
  3  4  2  0
  4  5  1  0
  5  6  2  0
  6  7  1  0
  6  8  1  0
  8  9  1  0
  9 10  1  0
 10 11  1  0
 11 12  1  0
 11 13  1  0
  2 14  2  0
 14 15  1  0
 15 16  2  0
 16 17  1  0
 17 18  1  0
 17 19  2  0
 19 20  1  0
 20 21  2  0
 20 22  1  0
 11  5  1  0
M  END
>  <zinc_id>  (464) 
ZINC000003792789

>  <smiles>  (464) 
CC1=C(/C=C/C(C)=C/C=C/C(C)=C\C(=O)O)C(C)(C)CCC1

$$$$

     RDKit          3D

 25 26  0  0  0  0  0  0  0  0999 V2000
    6.6412    3.1056   -0.5835 C   0  0  0  0  0  0  0  0  0  0  0  0
    6.2148    3.1902   -0.0395 C   0  0  0  0  0  0  0  0  0  0  0  0
    6.1181    1.9085    0.7730 C   0  0  0  0  0  0  0  0  0  0  0  0
    4.7037    1.4286    0.4868 C   0  0  0  0  0  0  0  0  0  0  0  0
    4.7750    0.0489   -0.0808 C   0  0  0  0  0  0  0  0  0  0  0  0
    4.2237   -0.8026    1.2258 C   0  0  2  0  0  0  0  0  0  0  0  0
    4.3165   -2.1127    0.4447 O   0  0  0  0  0  0  0  0  0  0  0  0
    2.6643   -0.6304    0.8668 C   0  0  0  0  0  0  0  0  0  0  0  0
    2.0754    0.0216    0.0311 C   0  0  0  0  0  0  0  0  0  0  0  0
    1.1205   -0.5630   -1.1094 C   0  0  1  0  0  0  0  0  0  0  0  0
    1.1239   -2.1110   -0.4246 C   0  0  2  0  0  0  0  0  0  0  0  0
    0.3123   -2.6854   -1.5793 O   0  0  0  0  0  0  0  0  0  0  0  0
   -0.1265   -1.9861    0.5810 C   0  0  0  0  0  0  0  0  0  0  0  0
   -0.0036   -0.4585    1.0769 C   0  0  2  0  0  0  0  0  0  0  0  0
   -1.5199   -0.3279    1.3280 O   0  0  0  0  0  0  0  0  0  0  0  0
   -2.1253   -0.9971    0.3112 C   0  0  0  0  0  0  0  0  0  0  0  0
   -3.3648   -1.2610   -0.0096 C   0  0  0  0  0  0  0  0  0  0  0  0
   -4.4300   -0.8324    0.8711 C   0  0  0  0  0  0  0  0  0  0  0  0
   -5.3270   -0.2390   -0.2251 C   0  0  0  0  0  0  0  0  0  0  0  0
   -5.1246    1.2454    0.0585 C   0  0  0  0  0  0  0  0  0  0  0  0
   -6.4764    1.7966    0.2852 C   0  0  0  0  0  0  0  0  0  0  0  0
   -7.3874    1.3488   -0.4763 O   0  0  0  0  0  0  0  0  0  0  0  0
   -6.8564    1.9257    1.6268 O   0  0  0  0  0  0  0  0  0  0  0  0
   -1.2709   -1.0995   -0.9155 C   0  0  0  0  0  0  0  0  0  0  0  0
   -0.2769    0.0868   -0.4935 C   0  0  2  0  0  0  0  0  0  0  0  0
  1  2  1  0
  2  3  1  0
  3  4  1  0
  4  5  1  0
  6  5  1  6
  6  7  1  0
  6  8  1  0
  8  9  2  0
 10  9  1  1
 10 11  1  0
 11 12  1  6
 11 13  1  0
 14 13  1  6
 14 15  1  0
 15 16  1  0
 16 17  2  0
 17 18  1  0
 18 19  1  0
 19 20  1  0
 20 21  1  0
 21 22  2  0
 21 23  1  0
 16 24  1  0
 25 24  1  6
 25 10  1  0
 25 14  1  0
M  END
>  <zinc_id>  (465) 
ZINC000003813078

>  <smiles>  (465) 
CCCCC[C@H](O)/C=C/[C@H]1[C@H](O)C[C@@H]2O/C(=C\CCCC(=O)O)C[C@@H]21

$$$$

     RDKit          3D

 23 24  0  0  0  0  0  0  0  0999 V2000
   -3.4438    0.8835   -0.3641 N   0  0  0  0  0  0  0  0  0  0  0  0
   -4.5080   -0.2576   -0.0518 C   0  0  1  0  0  0  0  0  0  0  0  0
   -3.5748   -0.8960    1.1642 C   0  0  0  0  0  0  0  0  0  0  0  0
   -2.2269   -1.0398    0.5807 C   0  0  0  0  0  0  0  0  0  0  0  0
   -1.3076   -0.0500    0.9137 C   0  0  0  0  0  0  0  0  0  0  0  0
   -0.1392    0.0658    0.1762 C   0  0  0  0  0  0  0  0  0  0  0  0
    0.5387    1.9287   -0.5645 I   0  0  0  0  0  0  0  0  0  0  0  0
    0.3791   -1.1060   -0.3414 C   0  0  0  0  0  0  0  0  0  0  0  0
    1.5554   -1.1310   -1.0300 O   0  0  0  0  0  0  0  0  0  0  0  0
    2.6654   -0.3582   -0.8619 C   0  0  0  0  0  0  0  0  0  0  0  0
    3.3446    0.2080   -1.9374 C   0  0  0  0  0  0  0  0  0  0  0  0
    4.3391    1.1588   -1.7223 C   0  0  0  0  0  0  0  0  0  0  0  0
    4.5759    1.6591   -0.4465 C   0  0  0  0  0  0  0  0  0  0  0  0
    4.6727    3.0304   -0.1841 O   0  0  0  0  0  0  0  0  0  0  0  0
    4.2898    0.7436    0.5614 C   0  0  0  0  0  0  0  0  0  0  0  0
    4.7042    1.3990    2.5285 I   0  0  0  0  0  0  0  0  0  0  0  0
    3.3467   -0.2542    0.3467 C   0  0  0  0  0  0  0  0  0  0  0  0
   -0.4298   -2.2334   -0.4495 C   0  0  0  0  0  0  0  0  0  0  0  0
    0.1011   -3.7898   -1.7838 I   0  0  0  0  0  0  0  0  0  0  0  0
   -1.6830   -2.2341    0.1530 C   0  0  0  0  0  0  0  0  0  0  0  0
   -5.3002    0.7076    0.9948 C   0  0  0  0  0  0  0  0  0  0  0  0
   -5.9269    1.5671    0.3431 O   0  0  0  0  0  0  0  0  0  0  0  0
   -5.9725   -0.0015    1.9752 O   0  0  0  0  0  0  0  0  0  0  0  0
  2  1  1  6
  2  3  1  0
  3  4  1  0
  4  5  2  0
  5  6  1  0
  6  7  1  0
  6  8  2  0
  8  9  1  0
  9 10  1  0
 10 11  2  0
 11 12  1  0
 12 13  2  0
 13 14  1  0
 13 15  1  0
 15 16  1  0
 15 17  2  0
  8 18  1  0
 18 19  1  0
 18 20  2  0
  2 21  1  0
 21 22  2  0
 21 23  1  0
 20  4  1  0
 17 10  1  0
M  END
>  <zinc_id>  (466) 
ZINC000003830999

>  <smiles>  (466) 
N[C@@H](Cc1cc(I)c(Oc2ccc(O)c(I)c2)c(I)c1)C(=O)O

$$$$

     RDKit          3D

 28 31  0  0  0  0  0  0  0  0999 V2000
   -3.7023   -1.2692   -1.0136 C   0  0  0  0  0  0  0  0  0  0  0  0
   -3.8624   -0.4651    0.3722 C   0  0  2  0  0  0  0  0  0  0  0  0
   -3.3784    0.9498   -0.2630 C   0  0  0  0  0  0  0  0  0  0  0  0
   -4.5849    1.2412   -1.1507 C   0  0  0  0  0  0  0  0  0  0  0  0
   -5.7462    1.4109   -0.2531 C   0  0  0  0  0  0  0  0  0  0  0  0
   -5.5216    1.9633    0.8658 O   0  0  0  0  0  0  0  0  0  0  0  0
   -6.9680    0.7979   -0.4178 O   0  0  0  0  0  0  0  0  0  0  0  0
   -2.3848   -0.8783    1.1255 C   0  0  1  0  0  0  0  0  0  0  0  0
   -2.2657   -2.3726    0.5017 C   0  0  0  0  0  0  0  0  0  0  0  0
   -0.8975   -2.4625   -0.0598 C   0  0  0  0  0  0  0  0  0  0  0  0
   -0.2525   -1.2586    0.7986 C   0  0  1  0  0  0  0  0  0  0  0  0
    0.9224   -0.8613   -0.3170 C   0  0  2  0  0  0  0  0  0  0  0  0
    1.8987   -2.2381   -0.1786 C   0  0  2  0  0  0  0  0  0  0  0  0
    1.3455   -2.7736    1.1255 O   0  0  0  0  0  0  0  0  0  0  0  0
    3.1558   -1.5514    0.6305 C   0  0  0  0  0  0  0  0  0  0  0  0
    3.7397   -0.5432   -0.5110 C   0  0  2  0  0  0  0  0  0  0  0  0
    4.9373   -0.0311    0.4797 C   0  0  0  0  0  0  0  0  0  0  0  0
    5.4247    1.3215   -0.3273 C   0  0  2  0  0  0  0  0  0  0  0  0
    6.6550    1.4765    0.5472 O   0  0  0  0  0  0  0  0  0  0  0  0
    4.5601    2.2748    0.7002 C   0  0  0  0  0  0  0  0  0  0  0  0
    3.2458    1.8072    0.4495 C   0  0  0  0  0  0  0  0  0  0  0  0
    2.7453    0.6787   -0.1695 C   0  0  1  0  0  0  0  0  0  0  0  0
    2.0882    1.0747   -1.4488 C   0  0  0  0  0  0  0  0  0  0  0  0
    1.6361    0.0949    0.8462 C   0  0  1  0  0  0  0  0  0  0  0  0
    0.6399    1.3390    0.5690 C   0  0  0  0  0  0  0  0  0  0  0  0
   -0.7616    1.0135    0.6787 C   0  0  0  0  0  0  0  0  0  0  0  0
   -1.3132   -0.2203    0.1258 C   0  0  2  0  0  0  0  0  0  0  0  0
   -1.3556   -0.5186   -1.2393 C   0  0  0  0  0  0  0  0  0  0  0  0
  2  1  1  6
  2  3  1  0
  3  4  1  0
  4  5  1  0
  5  6  2  0
  5  7  1  0
  2  8  1  0
  8  9  1  6
  9 10  1  0
 11 10  1  6
 11 12  1  0
 12 13  1  1
 13 14  1  1
 13 15  1  0
 16 15  1  1
 16 17  1  0
 17 18  1  0
 18 19  1  1
 18 20  1  0
 20 21  1  0
 21 22  1  0
 22 23  1  6
 22 24  1  0
 24 25  1  6
 25 26  1  0
 26 27  1  0
 27 28  1  6
 27  8  1  0
 27 11  1  0
 24 12  1  0
 22 16  1  0
M  END
>  <zinc_id>  (467) 
ZINC000003914808

>  <smiles>  (467) 
C[C@H](CCC(=O)O)[C@H]1CC[C@H]2[C@H]3[C@H](CC[C@@]21C)[C@@]1(C)CC[C@@H](O)C[C@H]1C[C@H]3O

$$$$

     RDKit          3D

 35 41  0  0  0  0  0  0  0  0999 V2000
   -4.5677   -2.2094   -0.4318 O   0  0  0  0  0  0  0  0  0  0  0  0
   -4.8768   -1.0677   -0.1820 C   0  0  0  0  0  0  0  0  0  0  0  0
   -6.1531   -0.8564    0.7513 C   0  0  2  0  0  0  0  0  0  0  0  0
   -7.3978   -1.1631   -0.3853 C   0  0  1  0  0  0  0  0  0  0  0  0
   -8.1371    0.3014   -0.2954 C   0  0  0  0  0  0  0  0  0  0  0  0
   -7.6512    1.0569   -1.4552 C   0  0  0  0  0  0  0  0  0  0  0  0
   -6.0440    0.7601   -1.2231 C   0  0  2  0  0  0  0  0  0  0  0  0
   -6.3696   -0.7783   -1.5545 C   0  0  0  0  0  0  0  0  0  0  0  0
   -6.2388    0.7978    0.4681 C   0  0  2  0  0  0  0  0  0  0  0  0
   -4.6877    1.0452    0.7416 C   0  0  0  0  0  0  0  0  0  0  0  0
   -4.3173    2.2269    0.9157 O   0  0  0  0  0  0  0  0  0  0  0  0
   -3.9981   -0.0551    0.2374 N   0  0  0  0  0  0  0  0  0  0  0  0
   -2.6743   -0.3005    0.8087 C   0  0  0  0  0  0  0  0  0  0  0  0
   -1.7421   -0.7574   -0.4506 C   0  0  2  0  0  0  0  0  0  0  0  0
   -1.2997   -2.1834    0.1943 C   0  0  0  0  0  0  0  0  0  0  0  0
   -1.4600   -2.2072    1.6444 C   0  0  0  0  0  0  0  0  0  0  0  0
   -0.2378   -1.3950    2.0697 C   0  0  0  0  0  0  0  0  0  0  0  0
   -0.5081   -0.0399    1.6380 C   0  0  0  0  0  0  0  0  0  0  0  0
   -0.3636    0.1623    0.0317 C   0  0  1  0  0  0  0  0  0  0  0  0
    0.7327   -1.0346   -0.1743 C   0  0  0  0  0  0  0  0  0  0  0  0
    1.9588   -0.3010   -0.1509 N   0  0  0  0  0  0  0  0  0  0  0  0
    2.3453    0.1463   -1.4206 C   0  0  0  0  0  0  0  0  0  0  0  0
    3.4402    1.1358   -1.5196 C   0  0  0  0  0  0  0  0  0  0  0  0
    3.9179    1.4430   -0.1729 N   0  0  0  0  0  0  0  0  0  0  0  0
    4.9709    0.5718    0.2735 C   0  0  0  0  0  0  0  0  0  0  0  0
    4.8597   -0.0803    1.4561 N   0  0  0  0  0  0  0  0  0  0  0  0
    6.1403   -1.1848    1.3424 S   0  0  0  0  0  0  0  0  0  0  0  0
    7.0473   -0.3731    0.1358 C   0  0  0  0  0  0  0  0  0  0  0  0
    8.3553   -0.4897   -0.3192 C   0  0  0  0  0  0  0  0  0  0  0  0
    8.9033    0.5059   -1.1132 C   0  0  0  0  0  0  0  0  0  0  0  0
    8.1074    1.5837   -1.3959 C   0  0  0  0  0  0  0  0  0  0  0  0
    6.7767    1.5788   -1.1020 C   0  0  0  0  0  0  0  0  0  0  0  0
    6.2704    0.7500   -0.1038 C   0  0  0  0  0  0  0  0  0  0  0  0
    2.8278    1.8392    0.7166 C   0  0  0  0  0  0  0  0  0  0  0  0
    2.0710    0.5719    0.9552 C   0  0  0  0  0  0  0  0  0  0  0  0
  1  2  2  0
  3  2  1  6
  3  4  1  0
  4  5  1  1
  5  6  1  0
  7  6  1  6
  7  8  1  0
  7  9  1  0
  9 10  1  1
 10 11  2  0
 10 12  1  0
 12 13  1  0
 14 13  1  1
 14 15  1  0
 15 16  1  0
 16 17  1  0
 17 18  1  0
 18 19  1  0
 19 20  1  6
 20 21  1  0
 21 22  1  0
 22 23  1  0
 23 24  1  0
 24 25  1  0
 25 26  2  0
 26 27  1  0
 27 28  1  0
 28 29  2  0
 29 30  1  0
 30 31  2  0
 31 32  1  0
 32 33  2  0
 24 34  1  0
 34 35  1  0
 12  2  1  0
 19 14  1  0
 35 21  1  0
  9  3  1  0
 33 25  1  0
  8  4  1  0
 33 28  1  0
M  END
>  <zinc_id>  (468) 
ZINC000003927822

>  <smiles>  (468) 
O=C1[C@H]2[C@@H]3CC[C@@H](C3)[C@H]2C(=O)N1C[C@@H]1CCCC[C@H]1CN1CCN(c2nsc3ccccc23)CC1

$$$$

     RDKit          3D

  9  9  0  0  0  0  0  0  0  0999 V2000
   -2.5453    0.3977   -0.6465 O   0  0  0  0  0  0  0  0  0  0  0  0
   -1.7761   -0.2534    0.0836 C   0  0  0  0  0  0  0  0  0  0  0  0
   -1.8373   -0.5167    1.3908 O   0  0  0  0  0  0  0  0  0  0  0  0
   -0.3755   -0.5032   -0.7424 C   0  0  2  0  0  0  0  0  0  0  0  0
    0.5291   -0.7525    0.6450 C   0  0  0  0  0  0  0  0  0  0  0  0
    1.8910   -0.4939   -0.3116 C   0  0  2  0  0  0  0  0  0  0  0  0
    2.6906    0.0268    0.9140 O   0  0  0  0  0  0  0  0  0  0  0  0
    1.3889    1.0565   -0.6950 C   0  0  0  0  0  0  0  0  0  0  0  0
    0.0347    1.0388   -0.6378 N   0  0  0  0  0  0  0  0  0  0  0  0
  1  2  2  0
  2  3  1  0
  4  2  1  1
  4  5  1  0
  5  6  1  0
  6  7  1  1
  6  8  1  0
  8  9  1  0
  9  4  1  0
M  END
>  <zinc_id>  (469) 
ZINC000000901736

>  <smiles>  (469) 
O=C(O)[C@@H]1C[C@H](O)CN1

$$$$

     RDKit          3D

 12 12  0  0  0  0  0  0  0  0999 V2000
    1.0038   -0.2404    1.4476 N   0  0  0  0  0  0  0  0  0  0  0  0
    1.7458   -0.9913    0.2769 C   0  0  1  0  0  0  0  0  0  0  0  0
    0.5923   -0.6826   -0.8482 C   0  0  0  0  0  0  0  0  0  0  0  0
   -0.6596   -0.3333   -0.2373 C   0  0  0  0  0  0  0  0  0  0  0  0
   -1.4892   -1.1509    0.4859 C   0  0  0  0  0  0  0  0  0  0  0  0
   -2.8306   -0.8476    0.6584 C   0  0  0  0  0  0  0  0  0  0  0  0
   -3.3245    0.3285    0.1618 C   0  0  0  0  0  0  0  0  0  0  0  0
   -2.4751    1.2736   -0.3647 C   0  0  0  0  0  0  0  0  0  0  0  0
   -1.1583    0.9361   -0.5188 C   0  0  0  0  0  0  0  0  0  0  0  0
    2.6050    0.2897   -0.1843 C   0  0  0  0  0  0  0  0  0  0  0  0
    2.4864    1.3721    0.3407 O   0  0  0  0  0  0  0  0  0  0  0  0
    3.5039    0.0461   -1.2180 O   0  0  0  0  0  0  0  0  0  0  0  0
  2  1  1  1
  2  3  1  0
  3  4  1  0
  4  5  2  0
  5  6  1  0
  6  7  2  0
  7  8  1  0
  8  9  2  0
  2 10  1  0
 10 11  2  0
 10 12  1  0
  9  4  1  0
M  END
>  <zinc_id>  (470) 
ZINC000000105196

>  <smiles>  (470) 
N[C@@H](Cc1ccccc1)C(=O)O

$$$$

     RDKit          3D

 14 15  0  0  0  0  0  0  0  0999 V2000
   -0.0557   -1.7420   -1.7696 O   0  0  0  0  0  0  0  0  0  0  0  0
    0.0225   -1.2814   -0.5922 C   0  0  0  0  0  0  0  0  0  0  0  0
    1.3470   -0.7625   -0.2277 C   0  0  0  0  0  0  0  0  0  0  0  0
    1.5287   -0.4876    1.1201 C   0  0  0  0  0  0  0  0  0  0  0  0
    2.5751    0.3359    1.5137 C   0  0  0  0  0  0  0  0  0  0  0  0
    3.2013    1.1146    0.5548 C   0  0  0  0  0  0  0  0  0  0  0  0
    2.8067    1.0983   -0.7684 C   0  0  0  0  0  0  0  0  0  0  0  0
    1.8896    0.1417   -1.1309 C   0  0  0  0  0  0  0  0  0  0  0  0
   -1.1437   -0.5365   -0.1063 C   0  0  0  0  0  0  0  0  0  0  0  0
   -2.4205   -0.9197   -0.4575 C   0  0  0  0  0  0  0  0  0  0  0  0
   -3.4242    0.0363   -0.3682 C   0  0  0  0  0  0  0  0  0  0  0  0
   -3.1851    1.2459    0.2767 C   0  0  0  0  0  0  0  0  0  0  0  0
   -2.1367    1.2214    1.1883 C   0  0  0  0  0  0  0  0  0  0  0  0
   -1.0050    0.5356    0.7671 C   0  0  0  0  0  0  0  0  0  0  0  0
  1  2  2  0
  2  3  1  0
  3  4  2  0
  4  5  1  0
  5  6  2  0
  6  7  1  0
  7  8  2  0
  2  9  1  0
  9 10  2  0
 10 11  1  0
 11 12  2  0
 12 13  1  0
 13 14  2  0
  8  3  1  0
 14  9  1  0
M  END
>  <zinc_id>  (471) 
ZINC000000968233

>  <smiles>  (471) 
O=C(c1ccccc1)c1ccccc1

$$$$

     RDKit          3D

  8  7  0  0  0  0  0  0  0  0999 V2000
   -2.1804    0.2402   -0.9147 C   0  0  0  0  0  0  0  0  0  0  0  0
   -1.1937    0.4730    0.1941 C   0  0  0  0  0  0  0  0  0  0  0  0
   -0.3595    1.6065   -0.1518 C   0  0  0  0  0  0  0  0  0  0  0  0
   -0.3736   -0.9463    0.1681 C   0  0  2  0  0  0  0  0  0  0  0  0
   -0.1057   -0.8877    1.7231 N   0  0  0  0  0  0  0  0  0  0  0  0
    1.0547   -0.3220   -0.2293 C   0  0  0  0  0  0  0  0  0  0  0  0
    1.4086   -0.6145   -1.4114 O   0  0  0  0  0  0  0  0  0  0  0  0
    1.7496    0.4508    0.6218 O   0  0  0  0  0  0  0  0  0  0  0  0
  1  2  1  0
  2  3  1  0
  4  2  1  1
  4  5  1  0
  4  6  1  0
  6  7  2  0
  6  8  1  0
M  END
>  <zinc_id>  (472) 
ZINC000000895099

>  <smiles>  (472) 
CC(C)[C@H](N)C(=O)O

$$$$

     RDKit          3D

  8  7  0  0  0  0  0  0  0  0999 V2000
    1.8595   -1.0571   -0.6656 C   0  0  0  0  0  0  0  0  0  0  0  0
    0.9679   -0.3403    0.5462 C   0  0  1  0  0  0  0  0  0  0  0  0
    1.9880    0.7975    0.6706 O   0  0  0  0  0  0  0  0  0  0  0  0
    0.0246    0.5763   -0.6195 C   0  0  2  0  0  0  0  0  0  0  0  0
   -0.2732    1.7165    0.4462 N   0  0  0  0  0  0  0  0  0  0  0  0
   -1.3479   -0.2168   -0.2626 C   0  0  0  0  0  0  0  0  0  0  0  0
   -1.5956   -1.0474   -1.1690 O   0  0  0  0  0  0  0  0  0  0  0  0
   -1.6234   -0.4287    1.0538 O   0  0  0  0  0  0  0  0  0  0  0  0
  2  1  1  6
  2  3  1  0
  2  4  1  0
  4  5  1  1
  4  6  1  0
  6  7  2  0
  6  8  1  0
M  END
>  <zinc_id>  (473) 
ZINC000000895103

>  <smiles>  (473) 
C[C@@H](O)[C@H](N)C(=O)O

$$$$

     RDKit          3D

  9  9  0  0  0  0  0  0  0  0999 V2000
   -1.6304   -1.2188   -1.3873 O   0  0  0  0  0  0  0  0  0  0  0  0
   -1.0809   -0.4918   -0.5094 C   0  0  0  0  0  0  0  0  0  0  0  0
   -1.8142    0.5256   -0.0507 O   0  0  0  0  0  0  0  0  0  0  0  0
   -0.0244   -1.2828    0.4166 C   0  0  1  0  0  0  0  0  0  0  0  0
    1.2980   -0.6486   -0.3217 C   0  0  0  0  0  0  0  0  0  0  0  0
    0.7352    0.8790   -0.5214 C   0  0  2  0  0  0  0  0  0  0  0  0
    2.1205    1.4474   -0.2340 O   0  0  0  0  0  0  0  0  0  0  0  0
    0.3274    0.9981    1.0579 C   0  0  0  0  0  0  0  0  0  0  0  0
    0.0690   -0.2081    1.5500 N   0  0  0  0  0  0  0  0  0  0  0  0
  1  2  2  0
  2  3  1  0
  4  2  1  6
  4  5  1  0
  5  6  1  0
  6  7  1  1
  6  8  1  0
  8  9  1  0
  9  4  1  0
M  END
>  <zinc_id>  (474) 
ZINC000000895457

>  <smiles>  (474) 
O=C(O)[C@H]1C[C@H](O)CN1

$$$$

     RDKit          3D

 11 11  0  0  0  0  0  0  0  0999 V2000
   -2.5399   -1.0799   -0.0492 C   0  0  0  0  0  0  0  0  0  0  0  0
   -2.0549    0.2274    0.1020 C   0  0  0  0  0  0  0  0  0  0  0  0
   -2.7563    1.4511    0.1657 C   0  0  0  0  0  0  0  0  0  0  0  0
   -0.5434    0.3193    0.6540 C   0  0  2  0  0  0  0  0  0  0  0  0
   -0.0986    1.2855   -0.5771 C   0  0  0  0  0  0  0  0  0  0  0  0
    1.3755    1.3943   -0.3393 C   0  0  0  0  0  0  0  0  0  0  0  0
    2.0096    0.0247   -0.9832 C   0  0  1  0  0  0  0  0  0  0  0  0
    3.4805    0.3272   -0.3211 C   0  0  0  0  0  0  0  0  0  0  0  0
    1.5241   -0.8820    0.2967 C   0  0  0  0  0  0  0  0  0  0  0  0
   -0.0367   -1.0790   -0.2130 C   0  0  1  0  0  0  0  0  0  0  0  0
   -0.3598   -1.9885    0.9606 O   0  0  0  0  0  0  0  0  0  0  0  0
  1  2  1  0
  2  3  1  0
  4  2  1  6
  4  5  1  0
  5  6  1  0
  6  7  1  0
  7  8  1  1
  7  9  1  0
  9 10  1  0
 10 11  1  1
 10  4  1  0
M  END
>  <zinc_id>  (475) 
ZINC000001482164

>  <smiles>  (475) 
CC(C)[C@@H]1CC[C@@H](C)C[C@H]1O

$$$$

     RDKit          3D

 12 11  0  0  0  0  0  0  0  0999 V2000
    3.5929   -0.4201    0.3511 N   0  0  0  0  0  0  0  0  0  0  0  0
    3.1297    0.1744   -0.1944 C   0  0  0  0  0  0  0  0  0  0  0  0
    3.5806    1.5260   -0.3794 N   0  0  0  0  0  0  0  0  0  0  0  0
    1.8895   -0.1249   -0.8490 N   0  0  0  0  0  0  0  0  0  0  0  0
    1.1477   -1.2852   -0.3664 C   0  0  0  0  0  0  0  0  0  0  0  0
    0.2944   -0.9608    0.8168 C   0  0  0  0  0  0  0  0  0  0  0  0
   -1.1666   -1.1723    0.6263 C   0  0  0  0  0  0  0  0  0  0  0  0
   -1.6251   -0.2448   -0.6519 C   0  0  2  0  0  0  0  0  0  0  0  0
   -0.9170    1.0377   -0.0687 N   0  0  0  0  0  0  0  0  0  0  0  0
   -3.0443    0.1349    0.0101 C   0  0  0  0  0  0  0  0  0  0  0  0
   -3.0650    0.4758    1.1946 O   0  0  0  0  0  0  0  0  0  0  0  0
   -3.8167    0.8593   -0.8944 O   0  0  0  0  0  0  0  0  0  0  0  0
  1  2  2  0
  2  3  1  0
  2  4  1  0
  4  5  1  0
  5  6  1  0
  6  7  1  0
  8  7  1  1
  8  9  1  0
  8 10  1  0
 10 11  2  0
 10 12  1  0
M  END
>  <zinc_id>  (476) 
ZINC000001532525

>  <smiles>  (476) 
N=C(N)NCCC[C@H](N)C(=O)O

$$$$

     RDKit          3D

  9  8  0  0  0  0  0  0  0  0999 V2000
    2.7305    1.7205    0.5465 C   0  0  0  0  0  0  0  0  0  0  0  0
    2.4729   -0.0154    0.7448 S   0  0  0  0  0  0  0  0  0  0  0  0
    1.8647   -0.6619   -0.8021 C   0  0  0  0  0  0  0  0  0  0  0  0
    0.4044   -1.0391   -0.7631 C   0  0  0  0  0  0  0  0  0  0  0  0
   -0.3570    0.3353   -0.2701 C   0  0  2  0  0  0  0  0  0  0  0  0
   -0.3442   -0.1233    1.2415 N   0  0  0  0  0  0  0  0  0  0  0  0
   -1.8197   -0.2855   -0.5752 C   0  0  0  0  0  0  0  0  0  0  0  0
   -2.1778    0.1087   -1.7306 O   0  0  0  0  0  0  0  0  0  0  0  0
   -2.7738   -0.0393    0.4073 O   0  0  0  0  0  0  0  0  0  0  0  0
  1  2  1  0
  2  3  1  0
  3  4  1  0
  5  4  1  6
  5  6  1  0
  5  7  1  0
  7  8  2  0
  7  9  1  0
M  END
>  <zinc_id>  (477) 
ZINC000001532529

>  <smiles>  (477) 
CSCC[C@H](N)C(=O)O

$$$$

     RDKit          3D

  4  3  0  0  0  0  0  0  0  0999 V2000
    1.3190   -0.5491   -0.1158 C   0  0  0  0  0  0  0  0  0  0  0  0
    0.0114    0.0436    0.3523 C   0  0  0  0  0  0  0  0  0  0  0  0
   -1.1469   -0.8299   -0.1094 C   0  0  0  0  0  0  0  0  0  0  0  0
   -0.1835    1.3353   -0.1271 O   0  0  0  0  0  0  0  0  0  0  0  0
  1  2  1  0
  2  3  1  0
  2  4  1  0
M  END
>  <zinc_id>  (478) 
ZINC000000901159

>  <smiles>  (478) 
CC(C)O

$$$$

     RDKit          3D

 22 22  0  0  0  0  0  0  0  0999 V2000
    4.1538    0.6324    2.4653 C   0  0  0  0  0  0  0  0  0  0  0  0
    3.9014    0.5263    0.9938 C   0  0  0  0  0  0  0  0  0  0  0  0
    2.5214    0.4301    0.5636 C   0  0  0  0  0  0  0  0  0  0  0  0
    1.9385    1.1779   -0.3346 C   0  0  0  0  0  0  0  0  0  0  0  0
    1.2459    0.6614   -1.5216 C   0  0  0  0  0  0  0  0  0  0  0  0
    0.3765   -0.3266   -1.3016 C   0  0  0  0  0  0  0  0  0  0  0  0
    0.1249   -1.3776   -2.3378 C   0  0  0  0  0  0  0  0  0  0  0  0
   -0.6404   -0.0210   -0.2865 C   0  0  0  0  0  0  0  0  0  0  0  0
   -1.6881   -0.7803   -0.0580 C   0  0  0  0  0  0  0  0  0  0  0  0
   -3.0202   -0.2440    0.2530 C   0  0  0  0  0  0  0  0  0  0  0  0
   -4.0092   -1.1277    0.3619 C   0  0  0  0  0  0  0  0  0  0  0  0
   -3.6498   -2.4682    0.8714 C   0  0  0  0  0  0  0  0  0  0  0  0
   -5.3885   -0.8733   -0.1002 C   0  0  0  0  0  0  0  0  0  0  0  0
   -5.8359    0.5493    0.1259 C   0  0  0  0  0  0  0  0  0  0  0  0
   -4.7218    1.4652    0.5411 C   0  0  0  0  0  0  0  0  0  0  0  0
   -3.4317    1.1271   -0.1802 C   0  0  0  0  0  0  0  0  0  0  0  0
   -3.6889    1.1224   -1.6767 C   0  0  0  0  0  0  0  0  0  0  0  0
   -2.3715    2.1463    0.1243 C   0  0  0  0  0  0  0  0  0  0  0  0
    4.9404    0.1773    0.2610 C   0  0  0  0  0  0  0  0  0  0  0  0
    6.0628   -0.6062    0.7349 C   0  0  0  0  0  0  0  0  0  0  0  0
    5.9054   -1.7883    1.1688 O   0  0  0  0  0  0  0  0  0  0  0  0
    7.2748   -0.4024    0.0643 O   0  0  0  0  0  0  0  0  0  0  0  0
  1  2  1  0
  2  3  1  0
  3  4  2  0
  4  5  1  0
  5  6  2  0
  6  7  1  0
  6  8  1  0
  8  9  2  0
  9 10  1  0
 10 11  2  0
 11 12  1  0
 11 13  1  0
 13 14  1  0
 14 15  1  0
 15 16  1  0
 16 17  1  0
 16 18  1  0
  2 19  2  0
 19 20  1  0
 20 21  2  0
 20 22  1  0
 16 10  1  0
M  END
>  <zinc_id>  (479) 
ZINC000012661824

>  <smiles>  (479) 
CC1=C(/C=C/C(C)=C\C=C\C(C)=C\C(=O)O)C(C)(C)CCC1

$$$$

     RDKit          3D

 10  9  0  0  0  0  0  0  0  0999 V2000
    2.6728   -1.2086   -0.5622 N   0  0  0  0  0  0  0  0  0  0  0  0
    2.2918   -0.0025   -0.4700 C   0  0  0  0  0  0  0  0  0  0  0  0
    3.1684    0.8920   -0.3435 O   0  0  0  0  0  0  0  0  0  0  0  0
    0.8753    0.3755   -0.4450 C   0  0  0  0  0  0  0  0  0  0  0  0
   -0.0793   -0.7712   -0.3963 C   0  0  0  0  0  0  0  0  0  0  0  0
   -0.9398   -0.4170    0.9607 C   0  0  2  0  0  0  0  0  0  0  0  0
   -1.9034   -1.6469    0.7515 N   0  0  0  0  0  0  0  0  0  0  0  0
   -1.9254    0.5940    0.1879 C   0  0  0  0  0  0  0  0  0  0  0  0
   -2.4080    0.2538   -0.8888 O   0  0  0  0  0  0  0  0  0  0  0  0
   -1.7525    1.9309    0.5181 O   0  0  0  0  0  0  0  0  0  0  0  0
  1  2  1  0
  2  3  2  0
  2  4  1  0
  4  5  1  0
  6  5  1  6
  6  7  1  0
  6  8  1  0
  8  9  2  0
  8 10  1  0
M  END
>  <zinc_id>  (480) 
ZINC000001532526

>  <smiles>  (480) 
NC(=O)CC[C@H](N)C(=O)O

$$$$

     RDKit          3D

  7  6  0  0  0  0  0  0  0  0999 V2000
   -1.8479   -1.3072   -0.1269 O   0  0  0  0  0  0  0  0  0  0  0  0
   -0.7836   -0.2486   -0.0844 S   0  0  0  0  0  0  0  0  0  0  0  0
   -1.2106    0.8839   -0.9841 O   0  0  0  0  0  0  0  0  0  0  0  0
   -0.7828    0.3840    1.4709 O   0  0  0  0  0  0  0  0  0  0  0  0
    0.7813   -0.9039   -0.5596 C   0  0  0  0  0  0  0  0  0  0  0  0
    1.9278   -0.3086    0.2007 C   0  0  0  0  0  0  0  0  0  0  0  0
    1.9156    1.5005    0.0834 S   0  0  0  0  0  0  0  0  0  0  0  0
  1  2  2  0
  2  3  2  0
  2  4  1  0
  2  5  1  0
  5  6  1  0
  6  7  1  0
M  END
>  <zinc_id>  (481) 
ZINC000003831040

>  <smiles>  (481) 
O=S(=O)(O)CCS

$$$$

     RDKit          3D

  6  5  0  0  0  0  0  0  0  0999 V2000
    1.5466   -0.7604   -0.7119 C   0  0  0  0  0  0  0  0  0  0  0  0
    0.7260   -0.1940    0.6081 C   0  0  1  0  0  0  0  0  0  0  0  0
    1.0010    1.2524    0.2106 O   0  0  0  0  0  0  0  0  0  0  0  0
   -0.6952   -0.2589   -0.1758 C   0  0  0  0  0  0  0  0  0  0  0  0
   -1.0845    0.6593   -0.8194 O   0  0  0  0  0  0  0  0  0  0  0  0
   -1.4940   -0.6984    0.8885 O   0  0  0  0  0  0  0  0  0  0  0  0
  2  1  1  6
  2  3  1  0
  2  4  1  0
  4  5  2  0
  4  6  1  0
M  END
>  <zinc_id>  (482) 
ZINC000004658562

>  <smiles>  (482) 
C[C@@H](O)C(=O)O

$$$$

     RDKit          3D

  5  4  0  0  0  0  0  0  0  0999 V2000
    1.7488   -0.0386   -0.4944 N   0  0  0  0  0  0  0  0  0  0  0  0
    0.8741   -0.3309    0.6182 C   0  0  0  0  0  0  0  0  0  0  0  0
   -0.5092    0.0326    0.2198 C   0  0  0  0  0  0  0  0  0  0  0  0
   -0.7211    1.2440   -0.0628 O   0  0  0  0  0  0  0  0  0  0  0  0
   -1.3926   -0.9071   -0.2808 O   0  0  0  0  0  0  0  0  0  0  0  0
  1  2  1  0
  2  3  1  0
  3  4  2  0
  3  5  1  0
M  END
>  <zinc_id>  (483) 
ZINC000004658552

>  <smiles>  (483) 
NCC(=O)O

$$$$

     RDKit          3D

 10  9  0  0  0  0  0  0  0  0999 V2000
    3.1544   -0.2454    0.0693 C   0  0  0  0  0  0  0  0  0  0  0  0
    1.8713    0.5034    0.1077 C   0  0  0  0  0  0  0  0  0  0  0  0
    1.8726    1.7155    0.4779 O   0  0  0  0  0  0  0  0  0  0  0  0
    0.6385   -0.0126   -0.4086 N   0  0  0  0  0  0  0  0  0  0  0  0
   -0.4569    0.1249    0.7597 C   0  0  1  0  0  0  0  0  0  0  0  0
   -1.5095    0.9222   -0.2698 C   0  0  0  0  0  0  0  0  0  0  0  0
   -2.2686    2.2198    0.7229 S   0  0  0  0  0  0  0  0  0  0  0  0
   -1.1381   -1.3277    0.3955 C   0  0  0  0  0  0  0  0  0  0  0  0
   -1.9559   -1.5479    1.3467 O   0  0  0  0  0  0  0  0  0  0  0  0
   -0.2080   -2.3522    0.2579 O   0  0  0  0  0  0  0  0  0  0  0  0
  1  2  1  0
  2  3  2  0
  2  4  1  0
  5  4  1  6
  5  6  1  0
  6  7  1  0
  5  8  1  0
  8  9  2  0
  8 10  1  0
M  END
>  <zinc_id>  (484) 
ZINC000003589203

>  <smiles>  (484) 
CC(=O)N[C@@H](CS)C(=O)O

$$$$

     RDKit          3D

 17 18  0  0  0  0  0  0  0  0999 V2000
   -4.3963    0.1504    0.0511 N   0  0  0  0  0  0  0  0  0  0  0  0
   -3.5200    0.1580    0.2342 C   0  0  0  0  0  0  0  0  0  0  0  0
   -2.8771   -0.8972    0.8296 C   0  0  0  0  0  0  0  0  0  0  0  0
   -1.5111   -0.9044    1.0967 C   0  0  0  0  0  0  0  0  0  0  0  0
   -0.8229    0.0752    0.7264 N   0  0  0  0  0  0  0  0  0  0  0  0
    0.7093    0.3403    0.8033 C   0  0  2  0  0  0  0  0  0  0  0  0
    0.8810   -0.0419   -0.6684 O   0  0  0  0  0  0  0  0  0  0  0  0
    2.2809    0.3731   -0.2794 C   0  0  2  0  0  0  0  0  0  0  0  0
    2.8566   -0.0292   -1.7619 C   0  0  0  0  0  0  0  0  0  0  0  0
    3.4809    1.1860   -2.0768 O   0  0  0  0  0  0  0  0  0  0  0  0
    2.6115   -1.1790    0.3575 C   0  0  1  0  0  0  0  0  0  0  0  0
    3.4339   -0.5606    1.4489 O   0  0  0  0  0  0  0  0  0  0  0  0
    1.2169   -1.2071    1.3425 C   0  0  2  0  0  0  0  0  0  0  0  0
    0.4966   -2.0135    0.3068 O   0  0  0  0  0  0  0  0  0  0  0  0
   -1.3881    1.2135    0.2455 C   0  0  0  0  0  0  0  0  0  0  0  0
   -0.7215    2.1014   -0.3712 O   0  0  0  0  0  0  0  0  0  0  0  0
   -2.7307    1.2349    0.0738 N   0  0  0  0  0  0  0  0  0  0  0  0
  1  2  1  0
  2  3  1  0
  3  4  2  0
  4  5  1  0
  6  5  1  6
  6  7  1  0
  7  8  1  0
  8  9  1  6
  9 10  1  0
  8 11  1  0
 11 12  1  1
 11 13  1  0
 13 14  1  6
  5 15  1  0
 15 16  2  0
 15 17  1  0
 17  2  2  0
 13  6  1  0
M  END
>  <zinc_id>  (485) 
ZINC000003795098

>  <smiles>  (485) 
Nc1ccn([C@@H]2O[C@H](CO)[C@@H](O)[C@@H]2O)c(=O)n1

$$$$

     RDKit          3D

 15 15  0  0  0  0  0  0  0  0999 V2000
   -2.2861   -2.2193   -1.8613 O   0  0  0  0  0  0  0  0  0  0  0  0
   -2.1306   -2.1217   -0.6278 N   0  0  0  0  0  0  0  0  0  0  0  0
   -1.8635   -0.8767   -0.0244 N   0  0  0  0  0  0  0  0  0  0  0  0
   -2.9049   -0.0527    0.5214 C   0  0  0  0  0  0  0  0  0  0  0  0
   -3.4703    0.7905   -0.5921 C   0  0  0  0  0  0  0  0  0  0  0  0
   -3.5822    2.4501    0.0100 Cl  0  0  0  0  0  0  0  0  0  0  0  0
   -0.5166   -0.5787    0.3538 C   0  0  0  0  0  0  0  0  0  0  0  0
   -0.1018   -1.1877    1.3849 O   0  0  0  0  0  0  0  0  0  0  0  0
    0.3886    0.1114   -0.5144 N   0  0  0  0  0  0  0  0  0  0  0  0
    1.7633   -0.3814   -0.5438 C   0  0  0  0  0  0  0  0  0  0  0  0
    2.3368   -0.3684    0.8451 C   0  0  0  0  0  0  0  0  0  0  0  0
    2.7785    1.0064    1.2538 C   0  0  0  0  0  0  0  0  0  0  0  0
    3.7441    1.5786    0.2570 C   0  0  0  0  0  0  0  0  0  0  0  0
    3.2438    1.5625   -1.1535 C   0  0  0  0  0  0  0  0  0  0  0  0
    2.6009    0.2872   -1.5737 C   0  0  0  0  0  0  0  0  0  0  0  0
  1  2  2  0
  2  3  1  0
  3  4  1  0
  4  5  1  0
  5  6  1  0
  3  7  1  0
  7  8  2  0
  7  9  1  0
  9 10  1  0
 10 11  1  0
 11 12  1  0
 12 13  1  0
 13 14  1  0
 14 15  1  0
 15 10  1  0
M  END
>  <zinc_id>  (486) 
ZINC000003831006

>  <smiles>  (486) 
O=NN(CCCl)C(=O)NC1CCCCC1

$$$$

     RDKit          3D

 11 10  0  0  0  0  0  0  0  0999 V2000
   -3.0939   -1.1156   -0.6598 C   0  0  0  0  0  0  0  0  0  0  0  0
   -1.9274   -0.4852   -0.2421 C   0  0  0  0  0  0  0  0  0  0  0  0
   -1.5497   -0.6368    0.9613 O   0  0  0  0  0  0  0  0  0  0  0  0
   -1.5522    0.7953   -0.6218 O   0  0  0  0  0  0  0  0  0  0  0  0
   -0.0072    0.9900   -0.7444 C   0  0  1  0  0  0  0  0  0  0  0  0
   -0.0981    2.4455    0.0734 C   0  0  0  0  0  0  0  0  0  0  0  0
    0.3489    0.1639    0.6668 C   0  0  0  0  0  0  0  0  0  0  0  0
    1.6262   -0.4122    0.2495 N   0  0  0  0  0  0  0  0  0  0  0  0
    2.4574    0.6467   -0.2635 C   0  0  0  0  0  0  0  0  0  0  0  0
    2.3067   -0.9983    1.3693 C   0  0  0  0  0  0  0  0  0  0  0  0
    1.4892   -1.3933   -0.7887 C   0  0  0  0  0  0  0  0  0  0  0  0
  1  2  1  0
  2  3  2  0
  2  4  1  0
  5  4  1  1
  5  6  1  0
  5  7  1  0
  7  8  1  0
  8  9  1  0
  8 10  1  0
  8 11  1  0
M  CHG  1   8   1
M  END
>  <zinc_id>  (487) 
ZINC000003831050

>  <smiles>  (487) 
CC(=O)O[C@@H](C)C[N+](C)(C)C

$$$$

     RDKit          3D

 11 10  0  0  0  0  0  0  0  0999 V2000
   -3.1378    1.4658    0.2500 C   0  0  0  0  0  0  0  0  0  0  0  0
   -2.3168    0.4772   -0.1907 C   0  0  0  0  0  0  0  0  0  0  0  0
   -2.8018   -0.6973   -0.1661 O   0  0  0  0  0  0  0  0  0  0  0  0
   -0.9635    0.4970    0.1713 O   0  0  0  0  0  0  0  0  0  0  0  0
   -0.0962   -0.4357   -0.7448 C   0  0  2  0  0  0  0  0  0  0  0  0
   -1.0334   -1.7749   -0.3627 C   0  0  0  0  0  0  0  0  0  0  0  0
    0.9526   -0.7661    0.5216 C   0  0  0  0  0  0  0  0  0  0  0  0
    2.0639    0.0819    0.1831 N   0  0  0  0  0  0  0  0  0  0  0  0
    2.8695    0.2501    1.3784 C   0  0  0  0  0  0  0  0  0  0  0  0
    2.8892   -0.4948   -0.8653 C   0  0  0  0  0  0  0  0  0  0  0  0
    1.5744    1.3968   -0.1749 C   0  0  0  0  0  0  0  0  0  0  0  0
  1  2  1  0
  2  3  2  0
  2  4  1  0
  5  4  1  1
  5  6  1  0
  5  7  1  0
  7  8  1  0
  8  9  1  0
  8 10  1  0
  8 11  1  0
M  CHG  1   8   1
M  END
>  <zinc_id>  (488) 
ZINC000003831051

>  <smiles>  (488) 
CC(=O)O[C@H](C)C[N+](C)(C)C

$$$$

     RDKit          3D

 32 32  0  0  0  0  0  0  0  0999 V2000
   -1.9112    6.4111   -0.4994 C   0  0  0  0  0  0  0  0  0  0  0  0
   -1.7698    6.3256   -0.2585 O   0  0  0  0  0  0  0  0  0  0  0  0
   -1.5375    5.2750    0.5901 C   0  0  0  0  0  0  0  0  0  0  0  0
   -0.6681    4.2190   -0.0051 C   0  0  0  0  0  0  0  0  0  0  0  0
    0.4466    4.4752   -0.5522 O   0  0  0  0  0  0  0  0  0  0  0  0
   -0.5944    3.0334    0.7983 N   0  0  0  0  0  0  0  0  0  0  0  0
   -0.2403    1.8093    0.1364 C   0  0  0  0  0  0  0  0  0  0  0  0
   -1.2749    0.9687   -0.2409 C   0  0  0  0  0  0  0  0  0  0  0  0
   -3.0215    1.8519   -0.9778 I   0  0  0  0  0  0  0  0  0  0  0  0
   -1.3115   -0.3817   -0.0041 C   0  0  0  0  0  0  0  0  0  0  0  0
   -2.5405   -1.1019    0.3621 C   0  0  0  0  0  0  0  0  0  0  0  0
   -3.2246   -0.6788    1.3437 O   0  0  0  0  0  0  0  0  0  0  0  0
   -3.1970   -1.8385   -0.6427 N   0  0  0  0  0  0  0  0  0  0  0  0
   -4.5208   -2.3682   -0.3440 C   0  0  0  0  0  0  0  0  0  0  0  0
   -4.1516   -3.6477    0.6662 C   0  0  1  0  0  0  0  0  0  0  0  0
   -5.5955   -3.7019    1.1939 O   0  0  0  0  0  0  0  0  0  0  0  0
   -4.5103   -4.7575   -0.5313 C   0  0  0  0  0  0  0  0  0  0  0  0
   -3.5076   -4.5137   -1.4611 O   0  0  0  0  0  0  0  0  0  0  0  0
   -0.1072   -0.9698    0.3633 C   0  0  0  0  0  0  0  0  0  0  0  0
   -0.0382   -3.0595    0.5210 I   0  0  0  0  0  0  0  0  0  0  0  0
    1.0268   -0.1859    0.5458 C   0  0  0  0  0  0  0  0  0  0  0  0
    2.2628   -0.7940    1.0376 C   0  0  0  0  0  0  0  0  0  0  0  0
    2.7964   -0.3774    2.1093 O   0  0  0  0  0  0  0  0  0  0  0  0
    3.0414   -1.6810    0.2570 N   0  0  0  0  0  0  0  0  0  0  0  0
    3.4663   -2.9443    0.8540 C   0  0  0  0  0  0  0  0  0  0  0  0
    3.8336   -1.2484   -0.8905 C   0  0  0  0  0  0  0  0  0  0  0  0
    5.3988   -1.3965   -0.3238 C   0  0  2  0  0  0  0  0  0  0  0  0
    5.2808   -0.0714    0.4490 O   0  0  0  0  0  0  0  0  0  0  0  0
    6.0058   -0.6156   -1.6715 C   0  0  0  0  0  0  0  0  0  0  0  0
    7.0194   -1.4884   -2.1033 O   0  0  0  0  0  0  0  0  0  0  0  0
    0.8993    1.1943    0.6442 C   0  0  0  0  0  0  0  0  0  0  0  0
    2.2447    2.2585    1.8798 I   0  0  0  0  0  0  0  0  0  0  0  0
  1  2  1  0
  2  3  1  0
  3  4  1  0
  4  5  2  0
  4  6  1  0
  6  7  1  0
  7  8  2  0
  8  9  1  0
  8 10  1  0
 10 11  1  0
 11 12  2  0
 11 13  1  0
 13 14  1  0
 15 14  1  6
 15 16  1  0
 15 17  1  0
 17 18  1  0
 10 19  2  0
 19 20  1  0
 19 21  1  0
 21 22  1  0
 22 23  2  0
 22 24  1  0
 24 25  1  0
 24 26  1  0
 27 26  1  6
 27 28  1  0
 27 29  1  0
 29 30  1  0
 21 31  2  0
 31 32  1  0
 31  7  1  0
M  END
>  <zinc_id>  (489) 
ZINC000003830959

>  <smiles>  (489) 
COCC(=O)Nc1c(I)c(C(=O)NC[C@@H](O)CO)c(I)c(C(=O)N(C)C[C@H](O)CO)c1I

$$$$

     RDKit          3D

 23 26  0  0  0  0  0  0  0  0999 V2000
   -4.3503    0.2241    1.1659 C   0  0  0  0  0  0  0  0  0  0  0  0
   -3.6027   -0.7259    0.2947 C   0  0  0  0  0  0  0  0  0  0  0  0
   -4.0962   -1.6268   -0.5732 N   0  0  0  0  0  0  0  0  0  0  0  0
   -3.0944   -2.1469   -1.2811 N   0  0  0  0  0  0  0  0  0  0  0  0
   -1.9338   -1.7808   -0.6823 C   0  0  0  0  0  0  0  0  0  0  0  0
   -2.2809   -0.6891    0.0428 N   0  0  0  0  0  0  0  0  0  0  0  0
   -1.4568    0.3648    0.5453 C   0  0  0  0  0  0  0  0  0  0  0  0
   -2.1706    1.5087    0.8826 C   0  0  0  0  0  0  0  0  0  0  0  0
   -1.5964    2.7655    0.7447 C   0  0  0  0  0  0  0  0  0  0  0  0
   -0.3625    2.9306    0.1274 C   0  0  0  0  0  0  0  0  0  0  0  0
   -0.0716    4.2629   -0.9897 Cl  0  0  0  0  0  0  0  0  0  0  0  0
    0.4571    1.8076    0.1432 C   0  0  0  0  0  0  0  0  0  0  0  0
   -0.1074    0.5451    0.2742 C   0  0  0  0  0  0  0  0  0  0  0  0
    0.8186   -0.5308   -0.0738 C   0  0  0  0  0  0  0  0  0  0  0  0
    2.2080   -0.1904    0.1256 C   0  0  0  0  0  0  0  0  0  0  0  0
    2.8123    0.9385   -0.4140 C   0  0  0  0  0  0  0  0  0  0  0  0
    4.1889    1.0577   -0.5048 C   0  0  0  0  0  0  0  0  0  0  0  0
    4.9657   -0.0696   -0.2663 C   0  0  0  0  0  0  0  0  0  0  0  0
    4.4050   -1.0027    0.5962 C   0  0  0  0  0  0  0  0  0  0  0  0
    3.0290   -1.1389    0.7230 C   0  0  0  0  0  0  0  0  0  0  0  0
    2.3893   -2.7312    1.1044 Cl  0  0  0  0  0  0  0  0  0  0  0  0
    0.5045   -1.6560   -0.6366 N   0  0  0  0  0  0  0  0  0  0  0  0
   -0.6547   -2.1167   -1.3483 C   0  0  0  0  0  0  0  0  0  0  0  0
  1  2  1  0
  2  3  2  0
  3  4  1  0
  4  5  2  0
  5  6  1  0
  6  7  1  0
  7  8  2  0
  8  9  1  0
  9 10  2  0
 10 11  1  0
 10 12  1  0
 12 13  2  0
 13 14  1  0
 14 15  1  0
 15 16  2  0
 16 17  1  0
 17 18  2  0
 18 19  1  0
 19 20  2  0
 20 21  1  0
 14 22  2  0
 22 23  1  0
  6  2  1  0
 13  7  1  0
 20 15  1  0
 23  5  1  0
M  END
>  <zinc_id>  (490) 
ZINC000000002212

>  <smiles>  (490) 
Cc1nnc2n1-c1ccc(Cl)cc1C(c1ccccc1Cl)=NC2

$$$$

     RDKit          3D

 12 12  0  0  0  0  0  0  0  0999 V2000
    2.6782    1.3469   -0.0261 N   0  0  0  0  0  0  0  0  0  0  0  0
    2.7853    0.8459   -0.0766 C   0  0  0  0  0  0  0  0  0  0  0  0
    1.9829   -0.4225    0.6960 C   0  0  2  0  0  0  0  0  0  0  0  0
    2.6585   -1.4506   -0.2512 O   0  0  0  0  0  0  0  0  0  0  0  0
    0.6603   -0.3047   -0.2956 C   0  0  0  0  0  0  0  0  0  0  0  0
    0.2269    0.9812   -0.4675 C   0  0  0  0  0  0  0  0  0  0  0  0
   -1.1087    1.3429   -0.4557 C   0  0  0  0  0  0  0  0  0  0  0  0
   -2.0289    0.5000    0.1157 C   0  0  0  0  0  0  0  0  0  0  0  0
   -3.2113    0.9483    0.7067 O   0  0  0  0  0  0  0  0  0  0  0  0
   -1.6505   -0.8302    0.2413 C   0  0  0  0  0  0  0  0  0  0  0  0
   -2.6853   -1.7670    0.1308 O   0  0  0  0  0  0  0  0  0  0  0  0
   -0.3073   -1.1904    0.1821 C   0  0  0  0  0  0  0  0  0  0  0  0
  1  2  1  0
  3  2  1  6
  3  4  1  0
  3  5  1  0
  5  6  2  0
  6  7  1  0
  7  8  2  0
  8  9  1  0
  8 10  1  0
 10 11  1  0
 10 12  2  0
 12  5  1  0
M  END
>  <zinc_id>  (491) 
ZINC000000057624

>  <smiles>  (491) 
NC[C@H](O)c1ccc(O)c(O)c1

$$$$

     RDKit          3D

 20 22  0  0  0  0  0  0  0  0999 V2000
   -3.2032    2.5085   -0.0653 C   0  0  0  0  0  0  0  0  0  0  0  0
   -2.9057    2.2287    0.0650 C   0  0  0  0  0  0  0  0  0  0  0  0
   -2.8780    0.7340    0.1557 C   0  0  0  0  0  0  0  0  0  0  0  0
   -3.9490   -0.1382   -0.0013 C   0  0  0  0  0  0  0  0  0  0  0  0
   -5.3476    0.3039   -0.2987 C   0  0  0  0  0  0  0  0  0  0  0  0
   -3.4859   -1.3966   -0.2056 N   0  0  0  0  0  0  0  0  0  0  0  0
   -2.1550   -1.3697   -0.1499 C   0  0  0  0  0  0  0  0  0  0  0  0
   -1.7574   -0.0872    0.2329 C   0  0  0  0  0  0  0  0  0  0  0  0
   -0.3586    0.1418   -0.1736 C   0  0  0  0  0  0  0  0  0  0  0  0
    0.0777    1.3324   -0.1158 O   0  0  0  0  0  0  0  0  0  0  0  0
    0.6981   -0.7988    0.6029 C   0  0  2  0  0  0  0  0  0  0  0  0
    1.7526   -0.7760   -0.6581 C   0  0  0  0  0  0  0  0  0  0  0  0
    3.0234   -0.5871   -0.0159 N   0  0  0  0  0  0  0  0  0  0  0  0
    4.1457   -1.1126   -0.7134 C   0  0  0  0  0  0  0  0  0  0  0  0
    5.1004   -0.1513   -1.2807 C   0  0  0  0  0  0  0  0  0  0  0  0
    4.9729    1.1573   -1.0435 O   0  0  0  0  0  0  0  0  0  0  0  0
    4.0042    1.6448   -0.2535 C   0  0  0  0  0  0  0  0  0  0  0  0
    3.2179    0.6978    0.5730 C   0  0  0  0  0  0  0  0  0  0  0  0
    0.0659   -2.2358    0.1421 C   0  0  0  0  0  0  0  0  0  0  0  0
   -1.0184   -2.0960   -0.8096 C   0  0  0  0  0  0  0  0  0  0  0  0
  1  2  1  0
  2  3  1  0
  3  4  2  0
  4  5  1  0
  4  6  1  0
  6  7  1  0
  7  8  2  0
  8  9  1  0
  9 10  2  0
  9 11  1  0
 11 12  1  6
 12 13  1  0
 13 14  1  0
 14 15  1  0
 15 16  1  0
 16 17  1  0
 17 18  1  0
 11 19  1  0
 19 20  1  0
  8  3  1  0
 18 13  1  0
 20  7  1  0
M  END
>  <zinc_id>  (492) 
ZINC000022002214

>  <smiles>  (492) 
CCc1c(C)[nH]c2c1C(=O)[C@H](CN1CCOCC1)CC2

$$$$

     RDKit          3D

 20 22  0  0  0  0  0  0  0  0999 V2000
   -2.1241    2.6807    0.4731 C   0  0  0  0  0  0  0  0  0  0  0  0
   -2.2996    2.1713    0.8126 C   0  0  0  0  0  0  0  0  0  0  0  0
   -2.5750    0.8271    0.2720 C   0  0  0  0  0  0  0  0  0  0  0  0
   -3.7366    0.2216   -0.1271 C   0  0  0  0  0  0  0  0  0  0  0  0
   -5.0877    0.7847    0.1842 C   0  0  0  0  0  0  0  0  0  0  0  0
   -3.4759   -0.9803   -0.6995 N   0  0  0  0  0  0  0  0  0  0  0  0
   -2.1264   -1.0886   -0.8091 C   0  0  0  0  0  0  0  0  0  0  0  0
   -1.5485   -0.0227   -0.1211 C   0  0  0  0  0  0  0  0  0  0  0  0
   -0.2538   -0.4128    0.4653 C   0  0  0  0  0  0  0  0  0  0  0  0
    0.3157    0.5050    1.1343 O   0  0  0  0  0  0  0  0  0  0  0  0
    0.7002   -0.8514   -0.7797 C   0  0  1  0  0  0  0  0  0  0  0  0
    1.8699   -1.4150    0.2487 C   0  0  0  0  0  0  0  0  0  0  0  0
    3.1130   -0.9441   -0.2756 N   0  0  0  0  0  0  0  0  0  0  0  0
    3.9685   -0.3824    0.7259 C   0  0  0  0  0  0  0  0  0  0  0  0
    4.7041    0.8478    0.2637 C   0  0  0  0  0  0  0  0  0  0  0  0
    3.7379    1.7178   -0.2272 O   0  0  0  0  0  0  0  0  0  0  0  0
    3.1151    1.2663   -1.3715 C   0  0  0  0  0  0  0  0  0  0  0  0
    3.0308   -0.2174   -1.4961 C   0  0  0  0  0  0  0  0  0  0  0  0
    0.0393   -2.3567   -0.9056 C   0  0  0  0  0  0  0  0  0  0  0  0
   -1.3670   -2.3507   -0.6624 C   0  0  0  0  0  0  0  0  0  0  0  0
  1  2  1  0
  2  3  1  0
  3  4  2  0
  4  5  1  0
  4  6  1  0
  6  7  1  0
  7  8  2  0
  8  9  1  0
  9 10  2  0
  9 11  1  0
 11 12  1  1
 12 13  1  0
 13 14  1  0
 14 15  1  0
 15 16  1  0
 16 17  1  0
 17 18  1  0
 11 19  1  0
 19 20  1  0
  8  3  1  0
 18 13  1  0
 20  7  1  0
M  END
>  <zinc_id>  (493) 
ZINC000022002218

>  <smiles>  (493) 
CCc1c(C)[nH]c2c1C(=O)[C@@H](CN1CCOCC1)CC2

$$$$

     RDKit          3D

 13 13  0  0  0  0  0  0  0  0999 V2000
    3.8911    0.2122   -0.2536 C   0  0  0  0  0  0  0  0  0  0  0  0
    2.3473    0.7093   -0.1799 C   0  0  2  0  0  0  0  0  0  0  0  0
    2.3849    0.8251    1.3749 N   0  0  0  0  0  0  0  0  0  0  0  0
    1.7895   -0.9128   -0.0877 C   0  0  2  0  0  0  0  0  0  0  0  0
    1.4526   -0.9059   -1.5631 O   0  0  0  0  0  0  0  0  0  0  0  0
    0.3148   -0.4463    0.3424 C   0  0  0  0  0  0  0  0  0  0  0  0
   -0.2922   -1.1891    1.3126 C   0  0  0  0  0  0  0  0  0  0  0  0
   -1.6568   -1.0202    1.5039 C   0  0  0  0  0  0  0  0  0  0  0  0
   -2.3436   -0.3028    0.5334 C   0  0  0  0  0  0  0  0  0  0  0  0
   -3.7199   -0.2133    0.5139 O   0  0  0  0  0  0  0  0  0  0  0  0
   -1.6448    0.7464   -0.0534 C   0  0  0  0  0  0  0  0  0  0  0  0
   -2.2433    1.9105   -0.4803 O   0  0  0  0  0  0  0  0  0  0  0  0
   -0.2798    0.5871   -0.2814 C   0  0  0  0  0  0  0  0  0  0  0  0
  2  1  1  1
  2  3  1  0
  2  4  1  0
  4  5  1  6
  4  6  1  0
  6  7  2  0
  7  8  1  0
  8  9  2  0
  9 10  1  0
  9 11  1  0
 11 12  1  0
 11 13  2  0
 13  6  1  0
M  END
>  <zinc_id>  (494) 
ZINC000000034157

>  <smiles>  (494) 
C[C@H](N)[C@H](O)c1ccc(O)c(O)c1

$$$$

     RDKit          3D

 14 15  0  0  0  0  0  0  0  0999 V2000
   -0.5511    0.8894    1.4019 C   0  0  0  0  0  0  0  0  0  0  0  0
   -1.1958    1.3462   -0.0235 C   0  0  1  0  0  0  0  0  0  0  0  0
   -0.5060    0.0675   -0.9672 C   0  0  1  0  0  0  0  0  0  0  0  0
    0.9369    0.1320   -0.2595 C   0  0  0  0  0  0  0  0  0  0  0  0
    1.8919    0.8503   -0.9516 C   0  0  0  0  0  0  0  0  0  0  0  0
    3.2376    0.6500   -0.6800 C   0  0  0  0  0  0  0  0  0  0  0  0
    3.5826   -0.2675    0.2810 C   0  0  0  0  0  0  0  0  0  0  0  0
    2.6328   -0.9938    0.9775 C   0  0  0  0  0  0  0  0  0  0  0  0
    1.3521   -0.8839    0.5132 C   0  0  0  0  0  0  0  0  0  0  0  0
   -1.0407   -1.0562   -0.1051 O   0  0  0  0  0  0  0  0  0  0  0  0
   -2.1397   -1.3785   -0.9280 C   0  0  0  0  0  0  0  0  0  0  0  0
   -2.9403   -0.0797   -0.9282 C   0  0  0  0  0  0  0  0  0  0  0  0
   -2.5780    0.6692    0.2096 N   0  0  0  0  0  0  0  0  0  0  0  0
   -2.6825    0.0549    1.4599 C   0  0  0  0  0  0  0  0  0  0  0  0
  2  1  1  1
  2  3  1  0
  3  4  1  1
  4  5  2  0
  5  6  1  0
  6  7  2  0
  7  8  1  0
  8  9  2  0
  3 10  1  0
 10 11  1  0
 11 12  1  0
 12 13  1  0
 13 14  1  0
 13  2  1  0
  9  4  1  0
M  END
>  <zinc_id>  (495) 
ZINC000022010379

>  <smiles>  (495) 
C[C@H]1[C@@H](c2ccccc2)OCCN1C

$$$$

     RDKit          3D

 14 15  0  0  0  0  0  0  0  0999 V2000
   -0.8514   -2.0484   -0.3686 C   0  0  0  0  0  0  0  0  0  0  0  0
   -1.7511   -0.7060   -0.6450 C   0  0  2  0  0  0  0  0  0  0  0  0
   -0.4620    0.1484   -1.4684 C   0  0  2  0  0  0  0  0  0  0  0  0
    0.6485   -0.1024   -0.2948 C   0  0  0  0  0  0  0  0  0  0  0  0
    1.2422    1.0325    0.2040 C   0  0  0  0  0  0  0  0  0  0  0  0
    2.4653    1.0464    0.8405 C   0  0  0  0  0  0  0  0  0  0  0  0
    3.1833   -0.1126    0.8403 C   0  0  0  0  0  0  0  0  0  0  0  0
    2.7528   -1.1758    0.0641 C   0  0  0  0  0  0  0  0  0  0  0  0
    1.6012   -1.0459   -0.6845 C   0  0  0  0  0  0  0  0  0  0  0  0
   -0.8934    1.5231   -0.9474 O   0  0  0  0  0  0  0  0  0  0  0  0
   -2.2272    1.5053   -0.7247 C   0  0  0  0  0  0  0  0  0  0  0  0
   -2.3014    1.0958    0.7492 C   0  0  0  0  0  0  0  0  0  0  0  0
   -1.4372   -0.0889    0.7682 N   0  0  0  0  0  0  0  0  0  0  0  0
   -1.9695   -1.0716    1.6671 C   0  0  0  0  0  0  0  0  0  0  0  0
  2  1  1  1
  2  3  1  0
  3  4  1  1
  4  5  2  0
  5  6  1  0
  6  7  2  0
  7  8  1  0
  8  9  2  0
  3 10  1  0
 10 11  1  0
 11 12  1  0
 12 13  1  0
 13 14  1  0
 13  2  1  0
  9  4  1  0
M  END
>  <zinc_id>  (496) 
ZINC000022010382

>  <smiles>  (496) 
C[C@@H]1[C@H](c2ccccc2)OCCN1C

$$$$

     RDKit          3D

 10 11  0  0  0  0  0  0  0  0999 V2000
   -1.4541    2.0849   -0.6901 N   0  0  0  0  0  0  0  0  0  0  0  0
   -1.1630    0.7818   -0.1950 C   0  0  0  0  0  0  0  0  0  0  0  0
   -1.9698   -0.2761   -0.4553 N   0  0  0  0  0  0  0  0  0  0  0  0
   -1.4972   -1.5440   -0.3697 C   0  0  0  0  0  0  0  0  0  0  0  0
   -0.1663   -1.7597   -0.5141 N   0  0  0  0  0  0  0  0  0  0  0  0
    0.6317   -0.7878   -0.0064 C   0  0  0  0  0  0  0  0  0  0  0  0
    1.9872   -0.7345    0.0155 N   0  0  0  0  0  0  0  0  0  0  0  0
    2.2631    0.4471    0.5855 C   0  0  0  0  0  0  0  0  0  0  0  0
    1.2295    1.2909    0.3454 N   0  0  0  0  0  0  0  0  0  0  0  0
    0.1390    0.4973    0.2004 C   0  0  0  0  0  0  0  0  0  0  0  0
  1  2  1  0
  2  3  2  0
  3  4  1  0
  4  5  2  0
  5  6  1  0
  6  7  1  0
  7  8  1  0
  8  9  2  0
  9 10  1  0
 10  2  1  0
 10  6  2  0
M  END
>  <zinc_id>  (497) 
ZINC000000000882

>  <smiles>  (497) 
Nc1ncnc2[nH]cnc12

$$$$

     RDKit          3D

 12 12  0  0  0  0  0  0  0  0999 V2000
    2.9800   -0.1710    0.9430 C   0  0  0  0  0  0  0  0  0  0  0  0
    1.8696   -0.1311   -0.0622 C   0  0  0  0  0  0  0  0  0  0  0  0
    1.5299   -1.2525   -0.7480 N   0  0  0  0  0  0  0  0  0  0  0  0
    0.2350   -1.5915   -0.9649 C   0  0  0  0  0  0  0  0  0  0  0  0
   -0.8123   -0.8407   -0.4413 C   0  0  0  0  0  0  0  0  0  0  0  0
   -1.9932   -1.4659    0.2286 C   0  0  0  0  0  0  0  0  0  0  0  0
   -1.8797   -1.4120    1.6248 O   0  0  0  0  0  0  0  0  0  0  0  0
   -0.4586    0.4755   -0.1606 C   0  0  0  0  0  0  0  0  0  0  0  0
   -1.5722    1.4257    0.0497 C   0  0  0  0  0  0  0  0  0  0  0  0
   -1.9447    2.0906   -1.1191 O   0  0  0  0  0  0  0  0  0  0  0  0
    0.8751    0.8392   -0.0065 C   0  0  0  0  0  0  0  0  0  0  0  0
    1.1710    2.0335    0.6566 O   0  0  0  0  0  0  0  0  0  0  0  0
  1  2  1  0
  2  3  2  0
  3  4  1  0
  4  5  2  0
  5  6  1  0
  6  7  1  0
  5  8  1  0
  8  9  1  0
  9 10  1  0
  8 11  2  0
 11 12  1  0
 11  2  1  0
M  END
>  <zinc_id>  (498) 
ZINC000000049154

>  <smiles>  (498) 
Cc1ncc(CO)c(CO)c1O

$$$$

     RDKit          3D

 28 31  0  0  0  0  0  0  0  0999 V2000
    5.2883    2.3743   -0.3334 C   0  0  0  0  0  0  0  0  0  0  0  0
    5.7103    1.5594   -0.9671 O   0  0  0  0  0  0  0  0  0  0  0  0
    5.4405    0.2017   -0.9322 N   0  0  0  0  0  0  0  0  0  0  0  0
    4.3822   -0.1589   -0.3051 C   0  0  0  0  0  0  0  0  0  0  0  0
    3.2539    0.5720    0.2488 C   0  0  0  0  0  0  0  0  0  0  0  0
    2.1197   -0.3505    0.2649 N   0  0  0  0  0  0  0  0  0  0  0  0
    0.7774    0.1082    0.4736 C   0  0  0  0  0  0  0  0  0  0  0  0
   -0.2768   -0.7366    0.4788 N   0  0  0  0  0  0  0  0  0  0  0  0
   -1.5579   -0.2939    0.4514 C   0  0  0  0  0  0  0  0  0  0  0  0
   -1.8356    1.0620    0.5755 C   0  0  0  0  0  0  0  0  0  0  0  0
   -0.7702    1.9490    0.5007 C   0  0  0  0  0  0  0  0  0  0  0  0
    0.4661    1.4382    0.2182 C   0  0  0  0  0  0  0  0  0  0  0  0
    1.4368    2.2484   -0.2780 F   0  0  0  0  0  0  0  0  0  0  0  0
   -3.1286    1.5568    0.4575 C   0  0  0  0  0  0  0  0  0  0  0  0
   -3.2774    2.7868    0.2503 O   0  0  0  0  0  0  0  0  0  0  0  0
   -4.1521    0.7006    0.1049 C   0  0  0  0  0  0  0  0  0  0  0  0
   -5.4573    1.2694   -0.1970 C   0  0  0  0  0  0  0  0  0  0  0  0
   -6.3402    1.1440    0.6989 O   0  0  0  0  0  0  0  0  0  0  0  0
   -5.4499    2.4223   -0.9875 O   0  0  0  0  0  0  0  0  0  0  0  0
   -3.8690   -0.6371    0.0862 C   0  0  0  0  0  0  0  0  0  0  0  0
   -2.6000   -1.0853    0.1836 N   0  0  0  0  0  0  0  0  0  0  0  0
   -2.3361   -2.4178   -0.3563 C   0  0  0  0  0  0  0  0  0  0  0  0
   -1.9271   -3.4609    0.6348 C   0  0  0  0  0  0  0  0  0  0  0  0
   -3.3328   -3.4978    0.0852 C   0  0  0  0  0  0  0  0  0  0  0  0
    2.7807   -1.5384    0.7979 C   0  0  0  0  0  0  0  0  0  0  0  0
    3.8965   -1.7090   -0.4220 C   0  0  2  0  0  0  0  0  0  0  0  0
    5.0699   -2.1970    0.6493 C   0  0  0  0  0  0  0  0  0  0  0  0
    5.6888   -3.3101   -0.0184 N   0  0  0  0  0  0  0  0  0  0  0  0
  1  2  1  0
  2  3  1  0
  3  4  2  0
  4  5  1  0
  5  6  1  0
  6  7  1  0
  7  8  2  0
  8  9  1  0
  9 10  2  0
 10 11  1  0
 11 12  2  0
 12 13  1  0
 10 14  1  0
 14 15  2  0
 14 16  1  0
 16 17  1  0
 17 18  2  0
 17 19  1  0
 16 20  2  0
 20 21  1  0
 21 22  1  0
 22 23  1  0
 23 24  1  0
  6 25  1  0
 25 26  1  0
 26 27  1  1
 27 28  1  0
 26  4  1  0
 12  7  1  0
 24 22  1  0
 21  9  1  0
M  END
>  <zinc_id>  (499) 
ZINC000022059926

>  <smiles>  (499) 
CO/N=C1\CN(c2nc3c(cc2F)c(=O)c(C(=O)O)cn3C2CC2)C[C@@H]1CN

$$$$

     RDKit          3D

 21 23  0  0  0  0  0  0  0  0999 V2000
    5.2067    1.0267   -0.4681 O   0  0  0  0  0  0  0  0  0  0  0  0
    3.9932    0.4467   -0.1525 C   0  0  0  0  0  0  0  0  0  0  0  0
    2.7885    1.1214   -0.2957 C   0  0  0  0  0  0  0  0  0  0  0  0
    1.6175    0.3725   -0.3373 C   0  0  0  0  0  0  0  0  0  0  0  0
    1.6059   -0.6101    0.5937 C   0  0  0  0  0  0  0  0  0  0  0  0
    0.3251   -1.5884    0.6545 C   0  0  2  0  0  0  0  0  0  0  0  0
    0.5190   -2.0698   -0.9041 C   0  0  0  0  0  0  0  0  0  0  0  0
   -0.0392   -1.1146   -1.7611 N   0  0  0  0  0  0  0  0  0  0  0  0
   -1.3323   -1.5108   -2.2684 C   0  0  0  0  0  0  0  0  0  0  0  0
   -2.2734   -1.8771   -1.1250 C   0  0  0  0  0  0  0  0  0  0  0  0
   -2.0260   -0.8297   -0.0840 C   0  0  0  0  0  0  0  0  0  0  0  0
   -2.9688    0.1888   -0.0887 C   0  0  0  0  0  0  0  0  0  0  0  0
   -4.5629   -0.2389   -0.6139 Cl  0  0  0  0  0  0  0  0  0  0  0  0
   -2.6056    1.4891    0.2051 C   0  0  0  0  0  0  0  0  0  0  0  0
   -3.3953    2.5110   -0.2949 O   0  0  0  0  0  0  0  0  0  0  0  0
   -1.3942    1.7130    0.8512 C   0  0  0  0  0  0  0  0  0  0  0  0
   -0.9004    3.0176    0.7985 O   0  0  0  0  0  0  0  0  0  0  0  0
   -0.5992    0.6145    1.1762 C   0  0  0  0  0  0  0  0  0  0  0  0
   -0.7675   -0.4539    0.3311 C   0  0  0  0  0  0  0  0  0  0  0  0
    2.7799   -1.3534    0.6879 C   0  0  0  0  0  0  0  0  0  0  0  0
    4.0290   -0.8545    0.3342 C   0  0  0  0  0  0  0  0  0  0  0  0
  1  2  1  0
  2  3  2  0
  3  4  1  0
  4  5  2  0
  6  5  1  6
  6  7  1  0
  7  8  1  0
  8  9  1  0
  9 10  1  0
 10 11  1  0
 11 12  2  0
 12 13  1  0
 12 14  1  0
 14 15  1  0
 14 16  2  0
 16 17  1  0
 16 18  1  0
 18 19  2  0
  5 20  1  0
 20 21  2  0
 21  2  1  0
 19  6  1  0
 19 11  1  0
M  END
>  <zinc_id>  (500) 
ZINC000022116608

>  <smiles>  (500) 
Oc1ccc([C@@H]2CNCCc3c2cc(O)c(O)c3Cl)cc1

$$$$

     RDKit          3D

 21 22  0  0  0  0  0  0  0  0999 V2000
   -4.5465   -0.6093    0.1162 C   0  0  0  0  0  0  0  0  0  0  0  0
   -4.7278    0.1012   -0.1930 C   0  0  0  0  0  0  0  0  0  0  0  0
   -5.7160    0.8035    0.7181 C   0  0  0  0  0  0  0  0  0  0  0  0
   -5.4119   -0.0373   -1.5440 C   0  0  0  0  0  0  0  0  0  0  0  0
   -3.5994    0.9914   -0.3929 N   0  0  0  0  0  0  0  0  0  0  0  0
   -2.8807    1.1383    0.8291 C   0  0  0  0  0  0  0  0  0  0  0  0
   -1.2678    1.2395    0.3904 C   0  0  2  0  0  0  0  0  0  0  0  0
   -1.5723    2.2153   -0.7646 O   0  0  0  0  0  0  0  0  0  0  0  0
   -1.3896   -0.0844   -0.6292 C   0  0  0  0  0  0  0  0  0  0  0  0
   -0.0121   -0.2529   -0.9342 O   0  0  0  0  0  0  0  0  0  0  0  0
    0.7699   -1.1633   -0.2117 C   0  0  0  0  0  0  0  0  0  0  0  0
    0.2515   -2.2050    0.4877 N   0  0  0  0  0  0  0  0  0  0  0  0
    1.6394   -3.1430    0.7462 S   0  0  0  0  0  0  0  0  0  0  0  0
    2.7909   -1.9472    0.4010 N   0  0  0  0  0  0  0  0  0  0  0  0
    2.0227   -0.8387    0.2484 C   0  0  0  0  0  0  0  0  0  0  0  0
    2.6310    0.4584    0.1825 N   0  0  0  0  0  0  0  0  0  0  0  0
    3.5960    0.8243    1.2151 C   0  0  0  0  0  0  0  0  0  0  0  0
    4.9956    0.4925    0.7934 C   0  0  0  0  0  0  0  0  0  0  0  0
    5.0962    0.1192   -0.5247 O   0  0  0  0  0  0  0  0  0  0  0  0
    4.4035    0.9108   -1.4122 C   0  0  0  0  0  0  0  0  0  0  0  0
    2.9274    0.9867   -1.1438 C   0  0  0  0  0  0  0  0  0  0  0  0
  1  2  1  0
  2  3  1  0
  2  4  1  0
  2  5  1  0
  5  6  1  0
  7  6  1  1
  7  8  1  0
  7  9  1  0
  9 10  1  0
 10 11  1  0
 11 12  2  0
 12 13  1  0
 13 14  1  0
 14 15  2  0
 15 16  1  0
 16 17  1  0
 17 18  1  0
 18 19  1  0
 19 20  1  0
 20 21  1  0
 15 11  1  0
 21 16  1  0
M  END
>  <zinc_id>  (501) 
ZINC000000002176

>  <smiles>  (501) 
CC(C)(C)NC[C@H](O)COc1nsnc1N1CCOCC1

$$$$

     RDKit          3D

 26 27  0  0  0  0  0  0  0  0999 V2000
    5.8850    2.6634   -1.3119 O   0  0  0  0  0  0  0  0  0  0  0  0
    5.4886    2.1487   -0.2354 C   0  0  0  0  0  0  0  0  0  0  0  0
    5.0166    2.9712    0.7728 O   0  0  0  0  0  0  0  0  0  0  0  0
    5.8961    0.7383    0.0127 C   0  0  0  0  0  0  0  0  0  0  0  0
    5.3165    0.3610    1.3709 C   0  0  0  0  0  0  0  0  0  0  0  0
    4.5592   -0.8595    1.1556 N   0  0  0  0  0  0  0  0  0  0  0  0
    3.1949   -0.7644    0.8055 C   0  0  0  0  0  0  0  0  0  0  0  0
    2.4868    0.1743    1.2825 O   0  0  0  0  0  0  0  0  0  0  0  0
    2.5756   -1.7702   -0.0713 C   0  0  0  0  0  0  0  0  0  0  0  0
    1.9060   -2.8743    0.4433 C   0  0  0  0  0  0  0  0  0  0  0  0
    0.6460   -3.2230   -0.0302 C   0  0  0  0  0  0  0  0  0  0  0  0
    0.1054   -2.6112   -1.1562 C   0  0  0  0  0  0  0  0  0  0  0  0
   -1.2867   -2.2575   -1.1803 N   0  0  0  0  0  0  0  0  0  0  0  0
   -1.8595   -1.6393   -0.2446 N   0  0  0  0  0  0  0  0  0  0  0  0
   -2.5707   -0.4150   -0.3970 C   0  0  0  0  0  0  0  0  0  0  0  0
   -1.9073    0.7819   -0.1513 C   0  0  0  0  0  0  0  0  0  0  0  0
   -2.5212    1.9457   -0.5562 C   0  0  0  0  0  0  0  0  0  0  0  0
   -3.9075    1.9275   -0.5780 C   0  0  0  0  0  0  0  0  0  0  0  0
   -4.5929    3.1135   -0.7478 O   0  0  0  0  0  0  0  0  0  0  0  0
   -4.6044    0.8107   -0.1519 C   0  0  0  0  0  0  0  0  0  0  0  0
   -6.0067    0.8946    0.2731 C   0  0  0  0  0  0  0  0  0  0  0  0
   -6.2658    1.7739    1.1411 O   0  0  0  0  0  0  0  0  0  0  0  0
   -6.8592   -0.1822    0.0732 O   0  0  0  0  0  0  0  0  0  0  0  0
   -3.9283   -0.3963   -0.0994 C   0  0  0  0  0  0  0  0  0  0  0  0
    1.0110   -1.8696   -1.9076 C   0  0  0  0  0  0  0  0  0  0  0  0
    2.2224   -1.4420   -1.3758 C   0  0  0  0  0  0  0  0  0  0  0  0
  1  2  2  0
  2  3  1  0
  2  4  1  0
  4  5  1  0
  5  6  1  0
  6  7  1  0
  7  8  2  0
  7  9  1  0
  9 10  2  0
 10 11  1  0
 11 12  2  0
 12 13  1  0
 13 14  2  0
 14 15  1  0
 15 16  2  0
 16 17  1  0
 17 18  2  0
 18 19  1  0
 18 20  1  0
 20 21  1  0
 21 22  2  0
 21 23  1  0
 20 24  2  0
 12 25  1  0
 25 26  2  0
 26  9  1  0
 24 15  1  0
M  END
>  <zinc_id>  (502) 
ZINC000003952881

>  <smiles>  (502) 
O=C(O)CCNC(=O)c1ccc(/N=N/c2ccc(O)c(C(=O)O)c2)cc1

$$$$

     RDKit          3D

 38 41  0  0  0  0  0  0  0  0999 V2000
   -2.9136    2.2205    2.4241 C   0  0  0  0  0  0  0  0  0  0  0  0
   -3.0278    1.5335    2.7019 C   0  0  0  0  0  0  0  0  0  0  0  0
   -3.0281    1.7903    4.0812 C   0  0  0  0  0  0  0  0  0  0  0  0
   -2.5406    0.9505    1.6570 C   0  0  0  0  0  0  0  0  0  0  0  0
   -2.3472   -0.1672    0.9337 N   0  0  0  0  0  0  0  0  0  0  0  0
   -0.9166   -0.4966    0.9866 C   0  0  0  0  0  0  0  0  0  0  0  0
   -0.2681    1.0107    1.0202 C   0  0  1  0  0  0  0  0  0  0  0  0
    0.0879    0.8705    2.4792 O   0  0  0  0  0  0  0  0  0  0  0  0
    1.3299    0.5786    0.5787 C   0  0  2  0  0  0  0  0  0  0  0  0
    1.2519    1.5112   -0.7534 C   0  0  0  0  0  0  0  0  0  0  0  0
    1.2134    2.9046   -0.2846 C   0  0  0  0  0  0  0  0  0  0  0  0
    1.3615    3.2515    1.0426 C   0  0  0  0  0  0  0  0  0  0  0  0
    1.1783    4.5396    1.4536 C   0  0  0  0  0  0  0  0  0  0  0  0
    1.1925    5.5455    0.5085 C   0  0  0  0  0  0  0  0  0  0  0  0
    1.3482    5.2151   -0.8274 C   0  0  0  0  0  0  0  0  0  0  0  0
    1.5455    3.8895   -1.1919 C   0  0  0  0  0  0  0  0  0  0  0  0
    0.9743   -0.7209   -0.2159 N   0  0  0  0  0  0  0  0  0  0  0  0
    2.0359   -1.0777   -1.1056 C   0  0  0  0  0  0  0  0  0  0  0  0
    2.2567   -0.2044   -2.0011 O   0  0  0  0  0  0  0  0  0  0  0  0
    2.7914   -2.2530   -1.0319 O   0  0  0  0  0  0  0  0  0  0  0  0
    4.2061   -2.1651   -1.6228 C   0  0  1  0  0  0  0  0  0  0  0  0
    4.6443   -0.8730   -0.7161 C   0  0  0  0  0  0  0  0  0  0  0  0
    5.8581   -1.1200   -1.1944 O   0  0  0  0  0  0  0  0  0  0  0  0
    6.3424   -2.2701   -0.3226 C   0  0  1  0  0  0  0  0  0  0  0  0
    5.9082   -1.5233    0.9357 O   0  0  0  0  0  0  0  0  0  0  0  0
    5.4539   -2.5798    1.7167 C   0  0  0  0  0  0  0  0  0  0  0  0
    4.1942   -2.5761    0.8518 C   0  0  0  0  0  0  0  0  0  0  0  0
    4.8963   -3.1765   -0.4567 C   0  0  1  0  0  0  0  0  0  0  0  0
   -2.9142    0.1500   -0.6731 S   0  0  0  0  0  0  0  0  0  0  0  0
   -2.0019   -0.2081   -1.7707 O   0  0  0  0  0  0  0  0  0  0  0  0
   -3.2398    1.6215   -0.8493 O   0  0  0  0  0  0  0  0  0  0  0  0
   -4.3904   -0.7914   -0.8894 C   0  0  0  0  0  0  0  0  0  0  0  0
   -4.8443   -1.1003   -2.1657 C   0  0  0  0  0  0  0  0  0  0  0  0
   -5.5609   -2.2704   -2.3880 C   0  0  0  0  0  0  0  0  0  0  0  0
   -5.6570   -3.1988   -1.3766 C   0  0  0  0  0  0  0  0  0  0  0  0
   -5.8553   -4.5771   -1.6052 N   0  0  0  0  0  0  0  0  0  0  0  0
   -5.6223   -2.7121   -0.0796 C   0  0  0  0  0  0  0  0  0  0  0  0
   -4.9429   -1.5217    0.1505 C   0  0  0  0  0  0  0  0  0  0  0  0
  1  2  1  0
  2  3  1  0
  2  4  1  0
  4  5  1  0
  5  6  1  0
  7  6  1  6
  7  8  1  0
  7  9  1  0
  9 10  1  6
 10 11  1  0
 11 12  2  0
 12 13  1  0
 13 14  2  0
 14 15  1  0
 15 16  2  0
  9 17  1  0
 17 18  1  0
 18 19  2  0
 18 20  1  0
 21 20  1  1
 21 22  1  0
 22 23  1  0
 24 23  1  6
 24 25  1  0
 25 26  1  0
 26 27  1  0
 28 27  1  1
  5 29  1  0
 29 30  2  0
 29 31  2  0
 29 32  1  0
 32 33  2  0
 33 34  1  0
 34 35  2  0
 35 36  1  0
 35 37  1  0
 37 38  2  0
 16 11  1  0
 28 21  1  0
 38 32  1  0
 28 24  1  0
M  END
>  <zinc_id>  (503) 
ZINC000003955219

>  <smiles>  (503) 
CC(C)CN(C[C@@H](O)[C@H](Cc1ccccc1)NC(=O)O[C@H]1CO[C@H]2OCC[C@@H]12)S(=O)(=O)c1ccc(N)cc1

$$$$

     RDKit          3D

 29 32  0  0  0  0  0  0  0  0999 V2000
    4.4791    1.6541   -0.8331 O   0  0  0  0  0  0  0  0  0  0  0  0
    4.5722    1.3150   -0.4086 C   0  0  0  0  0  0  0  0  0  0  0  0
    3.2825    1.1408    0.1698 N   0  0  0  0  0  0  0  0  0  0  0  0
    2.1857    0.4624   -0.4862 C   0  0  0  0  0  0  0  0  0  0  0  0
    2.0538   -0.7011    0.6839 C   0  0  1  0  0  0  0  0  0  0  0  0
    0.7401    0.0180    1.3677 C   0  0  0  0  0  0  0  0  0  0  0  0
   -0.0466    0.2859    0.1930 N   0  0  0  0  0  0  0  0  0  0  0  0
   -1.3071    0.9290    0.2865 C   0  0  0  0  0  0  0  0  0  0  0  0
   -2.1654    0.5650    1.3183 C   0  0  0  0  0  0  0  0  0  0  0  0
   -3.5347    0.4234    1.1267 C   0  0  0  0  0  0  0  0  0  0  0  0
   -4.0169    0.5791   -0.1674 C   0  0  0  0  0  0  0  0  0  0  0  0
   -5.2313    0.0329   -0.6241 N   0  0  0  0  0  0  0  0  0  0  0  0
   -6.2657    0.9882   -1.0155 C   0  0  0  0  0  0  0  0  0  0  0  0
   -7.3266    1.0694    0.0414 C   0  0  0  0  0  0  0  0  0  0  0  0
   -7.5177   -0.0960    0.7492 O   0  0  0  0  0  0  0  0  0  0  0  0
   -7.2354   -1.2497    0.0094 C   0  0  0  0  0  0  0  0  0  0  0  0
   -5.7496   -1.2307   -0.1888 C   0  0  0  0  0  0  0  0  0  0  0  0
   -4.9760   -2.0177    0.4109 O   0  0  0  0  0  0  0  0  0  0  0  0
   -3.3122    1.4835   -0.9519 C   0  0  0  0  0  0  0  0  0  0  0  0
   -1.9290    1.5161   -0.8101 C   0  0  0  0  0  0  0  0  0  0  0  0
    0.2092   -0.7904   -0.7169 C   0  0  0  0  0  0  0  0  0  0  0  0
   -0.6493   -1.2668   -1.5230 O   0  0  0  0  0  0  0  0  0  0  0  0
    1.1707   -1.6017   -0.1942 O   0  0  0  0  0  0  0  0  0  0  0  0
    5.7950    0.6788    0.1026 C   0  0  0  0  0  0  0  0  0  0  0  0
    7.0636    0.8661   -0.3831 C   0  0  0  0  0  0  0  0  0  0  0  0
    7.7409   -0.2988   -0.6116 C   0  0  0  0  0  0  0  0  0  0  0  0
    7.5875   -1.2219    0.3984 C   0  0  0  0  0  0  0  0  0  0  0  0
    8.2744   -2.8493    0.3420 Cl  0  0  0  0  0  0  0  0  0  0  0  0
    6.1085   -0.6838    1.0930 S   0  0  0  0  0  0  0  0  0  0  0  0
  1  2  2  0
  2  3  1  0
  3  4  1  0
  5  4  1  6
  5  6  1  0
  6  7  1  0
  7  8  1  0
  8  9  2  0
  9 10  1  0
 10 11  2  0
 11 12  1  0
 12 13  1  0
 13 14  1  0
 14 15  1  0
 15 16  1  0
 16 17  1  0
 17 18  2  0
 11 19  1  0
 19 20  2  0
  7 21  1  0
 21 22  2  0
 21 23  1  0
  2 24  1  0
 24 25  2  0
 25 26  1  0
 26 27  2  0
 27 28  1  0
 27 29  1  0
 23  5  1  0
 29 24  1  0
 20  8  1  0
 17 12  1  0
M  END
>  <zinc_id>  (504) 
ZINC000003964126

>  <smiles>  (504) 
O=C(NC[C@H]1CN(c2ccc(N3CCOCC3=O)cc2)C(=O)O1)c1ccc(Cl)s1

$$$$

     RDKit          3D

 22 25  0  0  0  0  0  0  0  0999 V2000
   -1.7396    2.6260    1.4869 C   0  0  0  0  0  0  0  0  0  0  0  0
   -1.4083    1.3958    1.4865 C   0  0  0  0  0  0  0  0  0  0  0  0
    0.0023    1.1168    1.8499 C   0  0  0  0  0  0  0  0  0  0  0  0
    0.5583    0.5285    0.4541 C   0  0  1  0  0  0  0  0  0  0  0  0
    2.0600    0.1873    1.1861 C   0  0  2  0  0  0  0  0  0  0  0  0
    2.6549    1.6713    0.8097 C   0  0  0  0  0  0  0  0  0  0  0  0
    4.1115    1.2727    0.5980 C   0  0  0  0  0  0  0  0  0  0  0  0
    4.0787   -0.1719    0.1794 C   0  0  0  0  0  0  0  0  0  0  0  0
    5.1298   -0.7329   -0.1030 O   0  0  0  0  0  0  0  0  0  0  0  0
    2.6968   -0.4000   -0.2083 C   0  0  2  0  0  0  0  0  0  0  0  0
    2.2956    0.5133   -1.3028 C   0  0  0  0  0  0  0  0  0  0  0  0
    2.1611   -1.7634   -0.2037 C   0  0  0  0  0  0  0  0  0  0  0  0
    0.7064   -1.7026   -0.5005 C   0  0  0  0  0  0  0  0  0  0  0  0
   -0.0478   -1.0305    0.8015 C   0  0  2  0  0  0  0  0  0  0  0  0
   -1.4499   -0.7484    0.0133 C   0  0  1  0  0  0  0  0  0  0  0  0
   -1.3570   -1.0307   -1.4061 C   0  0  0  0  0  0  0  0  0  0  0  0
   -2.4558   -1.6746    0.6304 C   0  0  0  0  0  0  0  0  0  0  0  0
   -3.7003   -1.4476    0.2017 C   0  0  0  0  0  0  0  0  0  0  0  0
   -4.0567   -0.1801   -0.4579 C   0  0  0  0  0  0  0  0  0  0  0  0
   -5.2340    0.0913   -0.8107 O   0  0  0  0  0  0  0  0  0  0  0  0
   -3.0821    0.8920   -0.1929 C   0  0  0  0  0  0  0  0  0  0  0  0
   -1.9237    0.5877    0.3955 C   0  0  0  0  0  0  0  0  0  0  0  0
  1  2  2  0
  2  3  1  0
  4  3  1  1
  4  5  1  0
  5  6  1  6
  6  7  1  0
  7  8  1  0
  8  9  2  0
  8 10  1  0
 10 11  1  6
 10 12  1  0
 12 13  1  0
 14 13  1  6
 14 15  1  0
 15 16  1  6
 15 17  1  0
 17 18  2  0
 18 19  1  0
 19 20  2  0
 19 21  1  0
 21 22  2  0
 22  2  1  0
 14  4  1  0
 22 15  1  0
 10  5  1  0
M  END
>  <zinc_id>  (505) 
ZINC000003973334

>  <smiles>  (505) 
C=C1C[C@@H]2[C@H](CC[C@]3(C)C(=O)CC[C@@H]23)[C@@]2(C)C=CC(=O)C=C12

$$$$

     RDKit          3D

 39 41  0  0  0  0  0  0  0  0999 V2000
   -3.7362    6.9140    0.3344 C   0  0  0  0  0  0  0  0  0  0  0  0
   -3.4976    6.6143    0.3396 C   0  0  0  0  0  0  0  0  0  0  0  0
   -2.4307    5.5986    0.0733 C   0  0  0  0  0  0  0  0  0  0  0  0
   -1.2628    5.9430   -0.2290 O   0  0  0  0  0  0  0  0  0  0  0  0
   -2.6272    4.3451    0.6289 O   0  0  0  0  0  0  0  0  0  0  0  0
   -1.4935    3.3188    0.2718 C   0  0  1  0  0  0  0  0  0  0  0  0
   -2.2137    2.1863    1.0350 O   0  0  0  0  0  0  0  0  0  0  0  0
   -1.4774    0.7619    0.6021 P   0  0  2  0  0  0  0  0  0  0  0  0
   -0.9396    0.7308   -0.7983 O   0  0  0  0  0  0  0  0  0  0  0  0
   -2.7581   -0.5340    0.6905 C   0  0  0  0  0  0  0  0  0  0  0  0
   -3.0238   -1.1564   -0.6618 C   0  0  0  0  0  0  0  0  0  0  0  0
   -2.2013   -2.4390   -0.7026 C   0  0  0  0  0  0  0  0  0  0  0  0
   -2.4207   -3.1483    0.6186 C   0  0  0  0  0  0  0  0  0  0  0  0
   -3.5450   -4.1097    0.4485 C   0  0  0  0  0  0  0  0  0  0  0  0
   -4.7598   -3.5999    0.0342 C   0  0  0  0  0  0  0  0  0  0  0  0
   -5.8217   -4.4325   -0.2863 C   0  0  0  0  0  0  0  0  0  0  0  0
   -5.6546   -5.7999   -0.2225 C   0  0  0  0  0  0  0  0  0  0  0  0
   -4.3693   -6.2690    0.0177 C   0  0  0  0  0  0  0  0  0  0  0  0
   -3.2904   -5.4279    0.1510 C   0  0  0  0  0  0  0  0  0  0  0  0
   -0.0815    0.2854    1.6636 C   0  0  0  0  0  0  0  0  0  0  0  0
    1.2191    0.6782    1.0852 C   0  0  0  0  0  0  0  0  0  0  0  0
    1.2500    1.8790    0.6769 O   0  0  0  0  0  0  0  0  0  0  0  0
    2.0906   -0.3083    0.5860 N   0  0  0  0  0  0  0  0  0  0  0  0
    2.7776   -1.1750    1.4714 C   0  0  0  0  0  0  0  0  0  0  0  0
    3.7219   -2.0970    0.5113 C   0  0  2  0  0  0  0  0  0  0  0  0
    5.0815   -1.2430    0.8773 C   0  0  0  0  0  0  0  0  0  0  0  0
    5.8559   -1.1212   -0.3740 C   0  0  0  0  0  0  0  0  0  0  0  0
    7.2345   -1.6130   -0.4211 C   0  0  0  0  0  0  0  0  0  0  0  0
    7.6189   -2.6375    0.6035 C   0  0  0  0  0  0  0  0  0  0  0  0
    7.2244   -2.0384    1.9484 C   0  0  0  0  0  0  0  0  0  0  0  0
    5.7265   -2.0260    1.9750 C   0  0  0  0  0  0  0  0  0  0  0  0
    3.4709   -1.2494   -0.8720 C   0  0  0  0  0  0  0  0  0  0  0  0
    3.4402    0.1986   -0.0756 C   0  0  1  0  0  0  0  0  0  0  0  0
    2.6804    1.0126   -1.2548 C   0  0  0  0  0  0  0  0  0  0  0  0
    2.0694    0.4123   -2.1100 O   0  0  0  0  0  0  0  0  0  0  0  0
    3.5308    2.0730   -1.5948 O   0  0  0  0  0  0  0  0  0  0  0  0
   -2.2131    2.8677   -1.1707 C   0  0  0  0  0  0  0  0  0  0  0  0
   -1.5219    3.6261   -2.2306 C   0  0  0  0  0  0  0  0  0  0  0  0
   -3.6524    2.9799   -1.0279 C   0  0  0  0  0  0  0  0  0  0  0  0
  1  2  1  0
  2  3  1  0
  3  4  2  0
  3  5  1  0
  6  5  1  1
  6  7  1  0
  8  7  1  1
  8  9  2  0
  8 10  1  0
 10 11  1  0
 11 12  1  0
 12 13  1  0
 13 14  1  0
 14 15  2  0
 15 16  1  0
 16 17  2  0
 17 18  1  0
 18 19  2  0
  8 20  1  0
 20 21  1  0
 21 22  2  0
 21 23  1  0
 23 24  1  0
 24 25  1  0
 25 26  1  1
 26 27  1  0
 27 28  1  0
 28 29  1  0
 29 30  1  0
 30 31  1  0
 25 32  1  0
 32 33  1  0
 33 34  1  6
 34 35  2  0
 34 36  1  0
  6 37  1  0
 37 38  1  0
 37 39  1  0
 19 14  1  0
 33 23  1  0
 31 26  1  0
M  END
>  <zinc_id>  (506) 
ZINC000003977764

>  <smiles>  (506) 
CCC(=O)O[C@@H](O[P@](=O)(CCCCc1ccccc1)CC(=O)N1C[C@H](C2CCCCC2)C[C@H]1C(=O)O)C(C)C

$$$$

     RDKit          3D

 24 26  0  0  0  0  0  0  0  0999 V2000
    7.5850   -0.2125   -1.1544 C   0  0  0  0  0  0  0  0  0  0  0  0
    6.2505    0.0892   -1.5949 C   0  0  0  0  0  0  0  0  0  0  0  0
    5.9721    0.5963   -2.7103 O   0  0  0  0  0  0  0  0  0  0  0  0
    5.1087   -0.4967   -0.9757 N   0  0  0  0  0  0  0  0  0  0  0  0
    3.8638    0.1949   -0.8200 C   0  0  0  0  0  0  0  0  0  0  0  0
    3.7515    0.1403    0.8272 C   0  0  1  0  0  0  0  0  0  0  0  0
    2.3351    0.9737    0.7993 C   0  0  0  0  0  0  0  0  0  0  0  0
    1.4214   -0.0304    0.3367 N   0  0  0  0  0  0  0  0  0  0  0  0
    0.0998    0.2481   -0.0966 C   0  0  0  0  0  0  0  0  0  0  0  0
   -0.5940    1.2530    0.5244 C   0  0  0  0  0  0  0  0  0  0  0  0
   -1.9725    1.2434    0.5323 C   0  0  0  0  0  0  0  0  0  0  0  0
   -2.6642    0.1846   -0.0207 C   0  0  0  0  0  0  0  0  0  0  0  0
   -4.0470   -0.0468    0.2265 N   0  0  0  0  0  0  0  0  0  0  0  0
   -5.0118    0.4029   -0.7659 C   0  0  0  0  0  0  0  0  0  0  0  0
   -6.2891    0.7330   -0.0295 C   0  0  0  0  0  0  0  0  0  0  0  0
   -6.2656    0.3128    1.2882 O   0  0  0  0  0  0  0  0  0  0  0  0
   -5.9059   -1.0264    1.3233 C   0  0  0  0  0  0  0  0  0  0  0  0
   -4.4349   -1.2196    1.0054 C   0  0  0  0  0  0  0  0  0  0  0  0
   -1.9947   -0.8637   -0.6425 C   0  0  0  0  0  0  0  0  0  0  0  0
   -2.5329   -2.1197   -0.6398 F   0  0  0  0  0  0  0  0  0  0  0  0
   -0.6440   -0.6431   -0.8658 C   0  0  0  0  0  0  0  0  0  0  0  0
    1.8167   -1.1152    1.1939 C   0  0  0  0  0  0  0  0  0  0  0  0
    1.0342   -2.0796    1.4578 O   0  0  0  0  0  0  0  0  0  0  0  0
    3.1179   -1.2600    0.8011 O   0  0  0  0  0  0  0  0  0  0  0  0
  1  2  1  0
  2  3  2  0
  2  4  1  0
  4  5  1  0
  6  5  1  6
  6  7  1  0
  7  8  1  0
  8  9  1  0
  9 10  2  0
 10 11  1  0
 11 12  2  0
 12 13  1  0
 13 14  1  0
 14 15  1  0
 15 16  1  0
 16 17  1  0
 17 18  1  0
 12 19  1  0
 19 20  1  0
 19 21  2  0
  8 22  1  0
 22 23  2  0
 22 24  1  0
 24  6  1  0
 21  9  1  0
 18 13  1  0
M  END
>  <zinc_id>  (507) 
ZINC000002008866

>  <smiles>  (507) 
CC(=O)NC[C@H]1CN(c2ccc(N3CCOCC3)c(F)c2)C(=O)O1

$$$$

     RDKit          3D

 27 30  0  0  0  0  0  0  0  0999 V2000
   -4.9871   -3.5902    1.4683 Cl  0  0  0  0  0  0  0  0  0  0  0  0
   -3.9430   -2.7646    1.1441 C   0  0  0  0  0  0  0  0  0  0  0  0
   -3.7575   -1.5913    1.8601 C   0  0  0  0  0  0  0  0  0  0  0  0
   -2.5510   -0.9016    1.8199 C   0  0  0  0  0  0  0  0  0  0  0  0
   -1.8373   -1.0274    0.6304 C   0  0  0  0  0  0  0  0  0  0  0  0
   -1.2332    0.3762    0.0826 C   0  0  2  0  0  0  0  0  0  0  0  0
   -2.0489    0.3584   -1.3635 C   0  0  0  0  0  0  0  0  0  0  0  0
   -2.6596    1.6812   -1.3812 N   0  0  0  0  0  0  0  0  0  0  0  0
   -3.2975    2.1845   -2.4372 C   0  0  0  0  0  0  0  0  0  0  0  0
   -3.6302    3.4980   -2.1287 C   0  0  0  0  0  0  0  0  0  0  0  0
   -3.2556    3.7383   -0.8501 N   0  0  0  0  0  0  0  0  0  0  0  0
   -2.4502    2.7237   -0.5440 C   0  0  0  0  0  0  0  0  0  0  0  0
    0.0047   -0.2956   -0.5129 O   0  0  0  0  0  0  0  0  0  0  0  0
    0.8965    0.7139   -0.1118 C   0  0  0  0  0  0  0  0  0  0  0  0
    2.0100    0.1838    0.7368 C   0  0  0  0  0  0  0  0  0  0  0  0
    2.0108    0.2148    2.1282 C   0  0  0  0  0  0  0  0  0  0  0  0
    3.6598    0.5485    2.4753 S   0  0  0  0  0  0  0  0  0  0  0  0
    4.2895    0.3662    0.8879 C   0  0  0  0  0  0  0  0  0  0  0  0
    3.2175   -0.2310    0.2422 C   0  0  0  0  0  0  0  0  0  0  0  0
    3.4566   -0.8005   -1.0048 C   0  0  0  0  0  0  0  0  0  0  0  0
    4.7443   -0.7601   -1.5244 C   0  0  0  0  0  0  0  0  0  0  0  0
    5.7272    0.0684   -1.0114 C   0  0  0  0  0  0  0  0  0  0  0  0
    5.5419    0.5062    0.2955 C   0  0  0  0  0  0  0  0  0  0  0  0
    6.5227    1.8015    0.9832 Cl  0  0  0  0  0  0  0  0  0  0  0  0
   -2.1264   -1.9933   -0.2494 C   0  0  0  0  0  0  0  0  0  0  0  0
   -1.3036   -2.0106   -1.7872 Cl  0  0  0  0  0  0  0  0  0  0  0  0
   -3.0003   -2.9974    0.1521 C   0  0  0  0  0  0  0  0  0  0  0  0
  1  2  1  0
  2  3  2  0
  3  4  1  0
  4  5  2  0
  6  5  1  1
  6  7  1  0
  7  8  1  0
  8  9  1  0
  9 10  2  0
 10 11  1  0
 11 12  2  0
  6 13  1  0
 13 14  1  0
 14 15  1  0
 15 16  2  0
 16 17  1  0
 17 18  1  0
 18 19  2  0
 19 20  1  0
 20 21  2  0
 21 22  1  0
 22 23  2  0
 23 24  1  0
  5 25  1  0
 25 26  1  0
 25 27  2  0
 27  2  1  0
 12  8  1  0
 19 15  1  0
 23 18  1  0
M  END
>  <zinc_id>  (508) 
ZINC000002016037

>  <smiles>  (508) 
Clc1ccc([C@H](Cn2ccnc2)OCc2csc3c(Cl)cccc23)c(Cl)c1

$$$$

     RDKit          3D

 21 23  0  0  0  0  0  0  0  0999 V2000
    5.0492    0.6679   -1.3659 C   0  0  0  0  0  0  0  0  0  0  0  0
    3.9524    0.4308   -0.8100 N   0  0  0  0  0  0  0  0  0  0  0  0
    3.1580    1.4798   -0.2551 C   0  0  0  0  0  0  0  0  0  0  0  0
    2.0422    0.8770    0.5509 C   0  0  0  0  0  0  0  0  0  0  0  0
    1.2520    0.0713   -0.3849 N   0  0  0  0  0  0  0  0  0  0  0  0
    0.0816   -0.4337    0.5988 C   0  0  2  0  0  0  0  0  0  0  0  0
   -0.4546   -1.5332   -0.5123 C   0  0  0  0  0  0  0  0  0  0  0  0
    0.0511   -2.7919   -0.1694 C   0  0  0  0  0  0  0  0  0  0  0  0
   -0.5296   -3.9590   -0.5984 C   0  0  0  0  0  0  0  0  0  0  0  0
   -1.8707   -3.9555   -0.8541 C   0  0  0  0  0  0  0  0  0  0  0  0
   -2.5519   -2.7560   -0.7853 C   0  0  0  0  0  0  0  0  0  0  0  0
   -1.8447   -1.5979   -0.5710 C   0  0  0  0  0  0  0  0  0  0  0  0
   -0.9492    0.7438    0.0713 C   0  0  0  0  0  0  0  0  0  0  0  0
   -2.1536    0.7032    0.7799 C   0  0  0  0  0  0  0  0  0  0  0  0
   -3.0623    1.7023    0.4496 C   0  0  0  0  0  0  0  0  0  0  0  0
   -2.5501    2.9383    0.0785 C   0  0  0  0  0  0  0  0  0  0  0  0
   -3.6290    4.2539   -0.3758 Cl  0  0  0  0  0  0  0  0  0  0  0  0
   -1.1780    3.1306    0.1725 C   0  0  0  0  0  0  0  0  0  0  0  0
   -0.3820    2.0146    0.1427 C   0  0  0  0  0  0  0  0  0  0  0  0
    2.0466   -1.0932   -0.6413 C   0  0  0  0  0  0  0  0  0  0  0  0
    3.5226   -0.8930   -0.5173 C   0  0  0  0  0  0  0  0  0  0  0  0
  1  2  1  0
  2  3  1  0
  3  4  1  0
  4  5  1  0
  6  5  1  6
  6  7  1  0
  7  8  2  0
  8  9  1  0
  9 10  2  0
 10 11  1  0
 11 12  2  0
  6 13  1  0
 13 14  2  0
 14 15  1  0
 15 16  2  0
 16 17  1  0
 16 18  1  0
 18 19  2  0
  5 20  1  0
 20 21  1  0
 21  2  1  0
 12  7  1  0
 19 13  1  0
M  END
>  <zinc_id>  (509) 
ZINC000019362735

>  <smiles>  (509) 
CN1CCN([C@H](c2ccccc2)c2ccc(Cl)cc2)CC1

$$$$

     RDKit          3D

 21 23  0  0  0  0  0  0  0  0999 V2000
   -4.8070   -1.5369    0.7420 C   0  0  0  0  0  0  0  0  0  0  0  0
   -3.8113   -1.7353    0.2234 N   0  0  0  0  0  0  0  0  0  0  0  0
   -3.3284   -0.6444   -0.5822 C   0  0  0  0  0  0  0  0  0  0  0  0
   -2.5491    0.2964    0.2879 C   0  0  0  0  0  0  0  0  0  0  0  0
   -1.3007   -0.2498    0.7641 N   0  0  0  0  0  0  0  0  0  0  0  0
   -0.2621    0.1615   -0.3984 C   0  0  1  0  0  0  0  0  0  0  0  0
    0.1857    1.5248    0.4317 C   0  0  0  0  0  0  0  0  0  0  0  0
   -0.8761    2.4183    0.5320 C   0  0  0  0  0  0  0  0  0  0  0  0
   -0.8032    3.7195    0.0515 C   0  0  0  0  0  0  0  0  0  0  0  0
    0.4072    4.2312   -0.3722 C   0  0  0  0  0  0  0  0  0  0  0  0
    1.5195    3.4399   -0.2545 C   0  0  0  0  0  0  0  0  0  0  0  0
    1.3240    2.0910   -0.1407 C   0  0  0  0  0  0  0  0  0  0  0  0
    0.9008   -0.8133    0.2412 C   0  0  0  0  0  0  0  0  0  0  0  0
    1.2826   -1.7009   -0.7640 C   0  0  0  0  0  0  0  0  0  0  0  0
    2.6212   -1.9867   -1.0175 C   0  0  0  0  0  0  0  0  0  0  0  0
    3.4675   -1.8422    0.0757 C   0  0  0  0  0  0  0  0  0  0  0  0
    5.1568   -2.2561   -0.1790 Cl  0  0  0  0  0  0  0  0  0  0  0  0
    3.0978   -0.9218    1.0490 C   0  0  0  0  0  0  0  0  0  0  0  0
    1.8563   -0.2947    1.0059 C   0  0  0  0  0  0  0  0  0  0  0  0
   -1.3674   -1.6923    0.5360 C   0  0  0  0  0  0  0  0  0  0  0  0
   -2.7140   -2.2082    1.0263 C   0  0  0  0  0  0  0  0  0  0  0  0
  1  2  1  0
  2  3  1  0
  3  4  1  0
  4  5  1  0
  6  5  1  1
  6  7  1  0
  7  8  2  0
  8  9  1  0
  9 10  2  0
 10 11  1  0
 11 12  2  0
  6 13  1  0
 13 14  2  0
 14 15  1  0
 15 16  2  0
 16 17  1  0
 16 18  1  0
 18 19  2  0
  5 20  1  0
 20 21  1  0
 21  2  1  0
 12  7  1  0
 19 13  1  0
M  END
>  <zinc_id>  (510) 
ZINC000019362737

>  <smiles>  (510) 
CN1CCN([C@@H](c2ccccc2)c2ccc(Cl)cc2)CC1

$$$$

     RDKit          3D

 26 28  0  0  0  0  0  0  0  0999 V2000
    7.5718   -0.0773   -0.2175 O   0  0  0  0  0  0  0  0  0  0  0  0
    7.2280    0.1339   -0.2093 C   0  0  0  0  0  0  0  0  0  0  0  0
    5.7045    0.1657   -0.2378 C   0  0  0  0  0  0  0  0  0  0  0  0
    5.2236    1.4366    0.1021 O   0  0  0  0  0  0  0  0  0  0  0  0
    3.8438    1.3034    0.2931 C   0  0  0  0  0  0  0  0  0  0  0  0
    3.5322   -0.1244    0.6612 C   0  0  0  0  0  0  0  0  0  0  0  0
    2.1527   -0.4204    0.3691 N   0  0  0  0  0  0  0  0  0  0  0  0
    1.3177    0.6519    0.8766 C   0  0  0  0  0  0  0  0  0  0  0  0
    0.6505    1.3932   -0.2463 C   0  0  0  0  0  0  0  0  0  0  0  0
   -0.3227    0.5161   -0.9035 N   0  0  0  0  0  0  0  0  0  0  0  0
   -1.1978    0.1149    0.3865 C   0  0  1  0  0  0  0  0  0  0  0  0
   -2.3458    1.2463    0.0250 C   0  0  0  0  0  0  0  0  0  0  0  0
   -1.7978    2.5192   -0.1133 C   0  0  0  0  0  0  0  0  0  0  0  0
   -2.4066    3.6629    0.3383 C   0  0  0  0  0  0  0  0  0  0  0  0
   -3.7397    3.5315    0.7084 C   0  0  0  0  0  0  0  0  0  0  0  0
   -4.2480    2.2682    0.9851 C   0  0  0  0  0  0  0  0  0  0  0  0
   -3.3243    1.2300    1.0221 C   0  0  0  0  0  0  0  0  0  0  0  0
   -1.9717   -1.0886   -0.4374 C   0  0  0  0  0  0  0  0  0  0  0  0
   -1.3457   -2.2721   -0.0396 C   0  0  0  0  0  0  0  0  0  0  0  0
   -2.0216   -3.4830    0.0148 C   0  0  0  0  0  0  0  0  0  0  0  0
   -3.3438   -3.4199    0.3955 C   0  0  0  0  0  0  0  0  0  0  0  0
   -4.1025   -4.6396    1.4126 Cl  0  0  0  0  0  0  0  0  0  0  0  0
   -4.0361   -2.2882    0.0667 C   0  0  0  0  0  0  0  0  0  0  0  0
   -3.3236   -1.1424   -0.2286 C   0  0  0  0  0  0  0  0  0  0  0  0
    0.4100   -0.6691   -1.2432 C   0  0  0  0  0  0  0  0  0  0  0  0
    1.8927   -0.5486   -1.0462 C   0  0  0  0  0  0  0  0  0  0  0  0
  1  2  1  0
  2  3  1  0
  3  4  1  0
  4  5  1  0
  5  6  1  0
  6  7  1  0
  7  8  1  0
  8  9  1  0
  9 10  1  0
 11 10  1  6
 11 12  1  0
 12 13  2  0
 13 14  1  0
 14 15  2  0
 15 16  1  0
 16 17  2  0
 11 18  1  0
 18 19  2  0
 19 20  1  0
 20 21  2  0
 21 22  1  0
 21 23  1  0
 23 24  2  0
 10 25  1  0
 25 26  1  0
 26  7  1  0
 17 12  1  0
 24 18  1  0
M  END
>  <zinc_id>  (511) 
ZINC000019364222

>  <smiles>  (511) 
OCCOCCN1CCN([C@@H](c2ccccc2)c2ccc(Cl)cc2)CC1

$$$$

     RDKit          3D

 26 28  0  0  0  0  0  0  0  0999 V2000
    6.6800    1.5988   -0.4122 O   0  0  0  0  0  0  0  0  0  0  0  0
    6.6218    0.9619   -0.3561 C   0  0  0  0  0  0  0  0  0  0  0  0
    5.6344    0.0118    0.2798 C   0  0  0  0  0  0  0  0  0  0  0  0
    4.5536    0.6603    0.8477 O   0  0  0  0  0  0  0  0  0  0  0  0
    4.2442    1.7418    0.0283 C   0  0  0  0  0  0  0  0  0  0  0  0
    2.8221    1.5792   -0.4207 C   0  0  0  0  0  0  0  0  0  0  0  0
    2.4838    0.1567   -0.4399 N   0  0  0  0  0  0  0  0  0  0  0  0
    1.5546    0.0035   -1.5584 C   0  0  0  0  0  0  0  0  0  0  0  0
    0.4778    1.0335   -1.3043 C   0  0  0  0  0  0  0  0  0  0  0  0
   -0.1938    0.7238   -0.0679 N   0  0  0  0  0  0  0  0  0  0  0  0
   -1.5862    0.2320   -0.6671 C   0  0  2  0  0  0  0  0  0  0  0  0
   -2.4542    0.9254    0.5379 C   0  0  0  0  0  0  0  0  0  0  0  0
   -3.7823    0.8767    0.1142 C   0  0  0  0  0  0  0  0  0  0  0  0
   -4.6293    1.9760    0.1893 C   0  0  0  0  0  0  0  0  0  0  0  0
   -4.1819    3.1169    0.8447 C   0  0  0  0  0  0  0  0  0  0  0  0
   -2.9629    3.0291    1.5064 C   0  0  0  0  0  0  0  0  0  0  0  0
   -2.0439    2.1959    0.8810 C   0  0  0  0  0  0  0  0  0  0  0  0
   -1.5901   -1.2239    0.0880 C   0  0  0  0  0  0  0  0  0  0  0  0
   -0.8844   -2.0988   -0.7368 C   0  0  0  0  0  0  0  0  0  0  0  0
   -1.1439   -3.4600   -0.6897 C   0  0  0  0  0  0  0  0  0  0  0  0
   -2.4800   -3.8154   -0.5786 C   0  0  0  0  0  0  0  0  0  0  0  0
   -3.1806   -5.1735   -1.4197 Cl  0  0  0  0  0  0  0  0  0  0  0  0
   -3.2724   -2.9781    0.1668 C   0  0  0  0  0  0  0  0  0  0  0  0
   -2.8784   -1.6728    0.3664 C   0  0  0  0  0  0  0  0  0  0  0  0
    0.3590   -0.2317    0.7524 C   0  0  0  0  0  0  0  0  0  0  0  0
    1.8332   -0.1691    0.7998 C   0  0  0  0  0  0  0  0  0  0  0  0
  1  2  1  0
  2  3  1  0
  3  4  1  0
  4  5  1  0
  5  6  1  0
  6  7  1  0
  7  8  1  0
  8  9  1  0
  9 10  1  0
 11 10  1  1
 11 12  1  0
 12 13  2  0
 13 14  1  0
 14 15  2  0
 15 16  1  0
 16 17  2  0
 11 18  1  0
 18 19  2  0
 19 20  1  0
 20 21  2  0
 21 22  1  0
 21 23  1  0
 23 24  2  0
 10 25  1  0
 25 26  1  0
 26  7  1  0
 17 12  1  0
 24 18  1  0
M  END
>  <zinc_id>  (512) 
ZINC000019364224

>  <smiles>  (512) 
OCCOCCN1CCN([C@H](c2ccccc2)c2ccc(Cl)cc2)CC1

$$$$

     RDKit          3D

 27 29  0  0  0  0  0  0  0  0999 V2000
    6.9932   -0.5103   -0.6147 O   0  0  0  0  0  0  0  0  0  0  0  0
    6.8875    0.6961   -0.8022 C   0  0  0  0  0  0  0  0  0  0  0  0
    7.9996    1.5017   -0.6996 O   0  0  0  0  0  0  0  0  0  0  0  0
    5.5710    1.3613   -0.6702 C   0  0  0  0  0  0  0  0  0  0  0  0
    4.7783    0.5693    0.1763 O   0  0  0  0  0  0  0  0  0  0  0  0
    3.6452    0.2418   -0.5793 C   0  0  0  0  0  0  0  0  0  0  0  0
    2.4482    0.7237    0.2161 C   0  0  0  0  0  0  0  0  0  0  0  0
    1.7773   -0.4634    0.7046 N   0  0  0  0  0  0  0  0  0  0  0  0
    0.6971   -0.1122    1.5856 C   0  0  0  0  0  0  0  0  0  0  0  0
   -0.6102   -0.4660    1.0175 C   0  0  0  0  0  0  0  0  0  0  0  0
   -0.6955    0.0447   -0.2879 N   0  0  0  0  0  0  0  0  0  0  0  0
   -2.0741   -0.4849   -0.9311 C   0  0  1  0  0  0  0  0  0  0  0  0
   -2.2939   -1.6968    0.1740 C   0  0  0  0  0  0  0  0  0  0  0  0
   -3.6162   -1.9811    0.4034 C   0  0  0  0  0  0  0  0  0  0  0  0
   -3.8797   -3.1984    1.0200 C   0  0  0  0  0  0  0  0  0  0  0  0
   -2.9801   -4.2397    0.8243 C   0  0  0  0  0  0  0  0  0  0  0  0
   -2.0236   -4.0765   -0.1727 C   0  0  0  0  0  0  0  0  0  0  0  0
   -1.5467   -2.7756   -0.2975 C   0  0  0  0  0  0  0  0  0  0  0  0
   -3.0510    0.5514   -0.1034 C   0  0  0  0  0  0  0  0  0  0  0  0
   -3.8163    1.2093   -1.0668 C   0  0  0  0  0  0  0  0  0  0  0  0
   -4.0074    2.5892   -1.0277 C   0  0  0  0  0  0  0  0  0  0  0  0
   -3.4239    3.3274   -0.0034 C   0  0  0  0  0  0  0  0  0  0  0  0
   -2.7846    4.9469   -0.2742 Cl  0  0  0  0  0  0  0  0  0  0  0  0
   -3.1018    2.5728    1.1184 C   0  0  0  0  0  0  0  0  0  0  0  0
   -2.5718    1.3071    0.8740 C   0  0  0  0  0  0  0  0  0  0  0  0
    0.3198   -0.4123   -1.2042 C   0  0  0  0  0  0  0  0  0  0  0  0
    1.3597   -1.2252   -0.4448 C   0  0  0  0  0  0  0  0  0  0  0  0
  1  2  2  0
  2  3  1  0
  2  4  1  0
  4  5  1  0
  5  6  1  0
  6  7  1  0
  7  8  1  0
  8  9  1  0
  9 10  1  0
 10 11  1  0
 12 11  1  1
 12 13  1  0
 13 14  2  0
 14 15  1  0
 15 16  2  0
 16 17  1  0
 17 18  2  0
 12 19  1  0
 19 20  2  0
 20 21  1  0
 21 22  2  0
 22 23  1  0
 22 24  1  0
 24 25  2  0
 11 26  1  0
 26 27  1  0
 27  8  1  0
 18 13  1  0
 25 19  1  0
M  END
>  <zinc_id>  (513) 
ZINC000019364229

>  <smiles>  (513) 
O=C(O)COCCN1CCN([C@@H](c2ccccc2)c2ccc(Cl)cc2)CC1

$$$$

     RDKit          3D

 21 24  0  0  0  0  0  0  0  0999 V2000
    0.8207   -3.7062    1.1868 N   0  0  0  0  0  0  0  0  0  0  0  0
    1.0208   -2.5834    0.8225 C   0  0  0  0  0  0  0  0  0  0  0  0
    0.0210   -1.7120    0.5934 N   0  0  0  0  0  0  0  0  0  0  0  0
    0.1552   -0.5611   -0.0762 C   0  0  0  0  0  0  0  0  0  0  0  0
    1.4599   -0.1880   -0.3767 C   0  0  0  0  0  0  0  0  0  0  0  0
    1.3542    0.9644   -1.0325 N   0  0  0  0  0  0  0  0  0  0  0  0
    0.0794    1.3367   -1.0133 C   0  0  0  0  0  0  0  0  0  0  0  0
   -0.7237    0.3520   -0.5688 N   0  0  0  0  0  0  0  0  0  0  0  0
   -1.8867    0.7214    0.4638 C   0  0  1  0  0  0  0  0  0  0  0  0
   -2.4620    1.9258   -0.4750 C   0  0  0  0  0  0  0  0  0  0  0  0
   -3.7349    1.8828   -0.3909 C   0  0  0  0  0  0  0  0  0  0  0  0
   -4.1379    0.5710    0.4669 C   0  0  1  0  0  0  0  0  0  0  0  0
   -5.2584    0.1254   -0.6640 C   0  0  0  0  0  0  0  0  0  0  0  0
   -6.3609   -0.2026    0.1414 O   0  0  0  0  0  0  0  0  0  0  0  0
   -2.9555   -0.3337   -0.2539 C   0  0  0  0  0  0  0  0  0  0  0  0
    2.5118   -0.8204    0.2809 C   0  0  0  0  0  0  0  0  0  0  0  0
    3.8355   -0.3052    0.1615 N   0  0  0  0  0  0  0  0  0  0  0  0
    4.1784    0.9573    0.7950 C   0  0  0  0  0  0  0  0  0  0  0  0
    5.5592    1.4717    0.3436 C   0  0  0  0  0  0  0  0  0  0  0  0
    4.2471    2.2022    0.0063 C   0  0  0  0  0  0  0  0  0  0  0  0
    2.2768   -2.0982    0.6676 N   0  0  0  0  0  0  0  0  0  0  0  0
  1  2  1  0
  2  3  2  0
  3  4  1  0
  4  5  2  0
  5  6  1  0
  6  7  2  0
  7  8  1  0
  9  8  1  6
  9 10  1  0
 10 11  2  0
 11 12  1  0
 12 13  1  6
 13 14  1  0
 12 15  1  0
  5 16  1  0
 16 17  1  0
 17 18  1  0
 18 19  1  0
 19 20  1  0
 16 21  2  0
 21  2  1  0
  8  4  1  0
 15  9  1  0
 20 18  1  0
M  END
>  <zinc_id>  (514) 
ZINC000002015928

>  <smiles>  (514) 
Nc1nc(NC2CC2)c2ncn([C@H]3C=C[C@@H](CO)C3)c2n1

$$$$

     RDKit          3D

 46 49  0  0  0  0  0  0  0  0999 V2000
    5.7973    3.9888   -1.0083 C   0  0  0  0  0  0  0  0  0  0  0  0
    6.5999    3.0340   -0.3296 C   0  0  0  0  0  0  0  0  0  0  0  0
    7.8671    3.3932    0.0848 C   0  0  0  0  0  0  0  0  0  0  0  0
    8.7156    2.5138    0.7264 C   0  0  0  0  0  0  0  0  0  0  0  0
    8.2448    1.2183    0.9023 C   0  0  0  0  0  0  0  0  0  0  0  0
    6.9774    0.8756    0.5108 C   0  0  0  0  0  0  0  0  0  0  0  0
    6.4306   -0.4498    0.9274 C   0  0  0  0  0  0  0  0  0  0  0  0
    6.0953    1.8369    0.0971 C   0  0  0  0  0  0  0  0  0  0  0  0
    4.7362    1.6583    0.1293 O   0  0  0  0  0  0  0  0  0  0  0  0
    3.9977    1.8062    1.3423 C   0  0  0  0  0  0  0  0  0  0  0  0
    2.5804    1.6150    0.9713 C   0  0  0  0  0  0  0  0  0  0  0  0
    1.9135    2.5612    0.4644 O   0  0  0  0  0  0  0  0  0  0  0  0
    1.8428    0.4114    1.2117 N   0  0  0  0  0  0  0  0  0  0  0  0
    1.0874   -0.0875   -0.0699 C   0  0  1  0  0  0  0  0  0  0  0  0
    1.3075   -1.6548    0.3405 C   0  0  0  0  0  0  0  0  0  0  0  0
    2.7146   -1.9377   -0.0236 C   0  0  0  0  0  0  0  0  0  0  0  0
    3.4300   -2.7347    0.8450 C   0  0  0  0  0  0  0  0  0  0  0  0
    4.8172   -2.7149    0.7962 C   0  0  0  0  0  0  0  0  0  0  0  0
    5.4424   -2.2095   -0.3327 C   0  0  0  0  0  0  0  0  0  0  0  0
    4.6390   -1.8681   -1.4050 C   0  0  0  0  0  0  0  0  0  0  0  0
    3.2749   -1.6319   -1.2529 C   0  0  0  0  0  0  0  0  0  0  0  0
   -0.4514   -0.0153    0.7085 C   0  0  1  0  0  0  0  0  0  0  0  0
   -0.9289    1.0776   -0.2324 O   0  0  0  0  0  0  0  0  0  0  0  0
   -1.0625   -1.1896   -0.2748 C   0  0  0  0  0  0  0  0  0  0  0  0
   -2.4309   -1.4295    0.6193 C   0  0  2  0  0  0  0  0  0  0  0  0
   -3.0892   -2.4140   -0.5336 C   0  0  0  0  0  0  0  0  0  0  0  0
   -2.4407   -3.7362   -0.3215 C   0  0  0  0  0  0  0  0  0  0  0  0
   -2.0101   -4.1477    0.9258 C   0  0  0  0  0  0  0  0  0  0  0  0
   -1.3120   -5.3250    1.0861 C   0  0  0  0  0  0  0  0  0  0  0  0
   -1.4694   -6.2492    0.0759 C   0  0  0  0  0  0  0  0  0  0  0  0
   -2.0321   -5.8804   -1.1385 C   0  0  0  0  0  0  0  0  0  0  0  0
   -2.3809   -4.5832   -1.4068 C   0  0  0  0  0  0  0  0  0  0  0  0
   -3.1279   -0.1464    0.0134 N   0  0  0  0  0  0  0  0  0  0  0  0
   -4.5048    0.0217    0.3799 C   0  0  0  0  0  0  0  0  0  0  0  0
   -5.0790   -1.1125    0.4979 O   0  0  0  0  0  0  0  0  0  0  0  0
   -5.3993    0.7742   -0.7564 C   0  0  2  0  0  0  0  0  0  0  0  0
   -4.3744    2.0719   -0.8856 C   0  0  0  0  0  0  0  0  0  0  0  0
   -5.3071    2.9904   -1.6880 C   0  0  0  0  0  0  0  0  0  0  0  0
   -3.3221    1.6663   -1.8795 C   0  0  0  0  0  0  0  0  0  0  0  0
   -6.3406    1.4395    0.3313 N   0  0  0  0  0  0  0  0  0  0  0  0
   -7.7448    1.4537   -0.0691 C   0  0  0  0  0  0  0  0  0  0  0  0
   -8.2963    2.8327   -0.2464 C   0  0  0  0  0  0  0  0  0  0  0  0
   -8.0455    3.7356    0.9260 C   0  0  0  0  0  0  0  0  0  0  0  0
   -6.8366    3.4258    1.6324 N   0  0  0  0  0  0  0  0  0  0  0  0
   -5.8878    2.4743    1.1223 C   0  0  0  0  0  0  0  0  0  0  0  0
   -4.6372    2.6416    1.2502 O   0  0  0  0  0  0  0  0  0  0  0  0
  1  2  1  0
  2  3  2  0
  3  4  1  0
  4  5  2  0
  5  6  1  0
  6  7  1  0
  6  8  2  0
  8  9  1  0
  9 10  1  0
 10 11  1  0
 11 12  2  0
 11 13  1  0
 14 13  1  1
 14 15  1  0
 15 16  1  0
 16 17  2  0
 17 18  1  0
 18 19  2  0
 19 20  1  0
 20 21  2  0
 14 22  1  0
 22 23  1  6
 22 24  1  0
 25 24  1  6
 25 26  1  0
 26 27  1  0
 27 28  2  0
 28 29  1  0
 29 30  2  0
 30 31  1  0
 31 32  2  0
 25 33  1  0
 33 34  1  0
 34 35  2  0
 36 34  1  1
 36 37  1  0
 37 38  1  0
 37 39  1  0
 36 40  1  0
 40 41  1  0
 41 42  1  0
 42 43  1  0
 43 44  1  0
 44 45  1  0
 45 46  2  0
  8  2  1  0
 21 16  1  0
 32 27  1  0
 45 40  1  0
M  END
>  <zinc_id>  (515) 
ZINC000003951740

>  <smiles>  (515) 
Cc1cccc(C)c1OCC(=O)N[C@@H](Cc1ccccc1)[C@@H](O)C[C@H](Cc1ccccc1)NC(=O)[C@H](C(C)C)N1CCCNC1=O

$$$$

     RDKit          3D

 15 16  0  0  0  0  0  0  0  0999 V2000
    2.5922    1.7354    0.9184 C   0  0  0  0  0  0  0  0  0  0  0  0
    1.7600    1.1817    0.3579 C   0  0  0  0  0  0  0  0  0  0  0  0
    1.4097   -0.1997    1.1486 C   0  0  2  0  0  0  0  0  0  0  0  0
    2.7885   -0.8862    0.7244 C   0  0  0  0  0  0  0  0  0  0  0  0
    3.7751   -0.3820    1.3470 O   0  0  0  0  0  0  0  0  0  0  0  0
    2.6781   -1.2153   -0.5955 O   0  0  0  0  0  0  0  0  0  0  0  0
    1.6341   -0.4964   -1.2390 C   0  0  0  0  0  0  0  0  0  0  0  0
    0.5456   -0.9340   -0.1213 C   0  0  2  0  0  0  0  0  0  0  0  0
   -0.4033    0.3539   -0.3821 C   0  0  0  0  0  0  0  0  0  0  0  0
   -1.7613   -0.0714    0.0047 C   0  0  0  0  0  0  0  0  0  0  0  0
   -2.5577   -1.0591   -0.5332 C   0  0  0  0  0  0  0  0  0  0  0  0
   -3.8225   -0.8965   -0.0947 N   0  0  0  0  0  0  0  0  0  0  0  0
   -3.7718    0.1380    0.7467 C   0  0  0  0  0  0  0  0  0  0  0  0
   -2.5451    0.6657    0.8262 N   0  0  0  0  0  0  0  0  0  0  0  0
   -2.3214    2.0659    1.1761 C   0  0  0  0  0  0  0  0  0  0  0  0
  1  2  1  0
  3  2  1  6
  3  4  1  0
  4  5  2  0
  4  6  1  0
  6  7  1  0
  7  8  1  0
  8  9  1  6
  9 10  1  0
 10 11  2  0
 11 12  1  0
 12 13  2  0
 13 14  1  0
 14 15  1  0
  8  3  1  0
 14 10  1  0
M  END
>  <zinc_id>  (516) 
ZINC000000075008

>  <smiles>  (516) 
CC[C@@H]1C(=O)OC[C@@H]1Cc1cncn1C

$$$$

     RDKit          3D

 16 16  0  0  0  0  0  0  0  0999 V2000
    4.1851    1.6424    0.3180 C   0  0  0  0  0  0  0  0  0  0  0  0
    4.8725    0.3779   -0.0982 C   0  0  0  0  0  0  0  0  0  0  0  0
    3.8797   -0.7231   -0.3100 C   0  0  0  0  0  0  0  0  0  0  0  0
    2.5599   -0.1520   -0.3702 N   0  0  0  0  0  0  0  0  0  0  0  0
    1.6954   -1.5080   -0.4145 C   0  0  1  0  0  0  0  0  0  0  0  0
    2.3361   -2.0048    1.0587 C   0  0  0  0  0  0  0  0  0  0  0  0
    0.4006   -0.7369    0.2387 C   0  0  0  0  0  0  0  0  0  0  0  0
    0.1661   -0.9040    1.4224 O   0  0  0  0  0  0  0  0  0  0  0  0
   -0.7259   -0.7976   -0.6524 N   0  0  0  0  0  0  0  0  0  0  0  0
   -1.7578    0.1521   -0.3690 C   0  0  0  0  0  0  0  0  0  0  0  0
   -2.0933    1.1315   -1.2963 C   0  0  0  0  0  0  0  0  0  0  0  0
   -3.1836    1.9551   -1.0674 C   0  0  0  0  0  0  0  0  0  0  0  0
   -3.5826    2.0717    0.2569 C   0  0  0  0  0  0  0  0  0  0  0  0
   -3.3553    1.0122    1.1192 C   0  0  0  0  0  0  0  0  0  0  0  0
   -2.5568   -0.0620    0.7479 C   0  0  0  0  0  0  0  0  0  0  0  0
   -2.8400   -1.4545    1.2193 C   0  0  0  0  0  0  0  0  0  0  0  0
  1  2  1  0
  2  3  1  0
  3  4  1  0
  5  4  1  1
  5  6  1  0
  5  7  1  0
  7  8  2  0
  7  9  1  0
  9 10  1  0
 10 11  2  0
 11 12  1  0
 12 13  2  0
 13 14  1  0
 14 15  2  0
 15 16  1  0
 15 10  1  0
M  END
>  <zinc_id>  (517) 
ZINC000001530816

>  <smiles>  (517) 
CCCN[C@@H](C)C(=O)Nc1ccccc1C

$$$$

     RDKit          3D

 16 17  0  0  0  0  0  0  0  0999 V2000
    0.7522   -1.1443    2.1471 C   0  0  0  0  0  0  0  0  0  0  0  0
    0.8299   -1.2085    1.0595 N   0  0  0  0  0  0  0  0  0  0  0  0
    0.6307   -0.0876    0.1857 C   0  0  1  0  0  0  0  0  0  0  0  0
   -0.7954   -0.0011   -0.2285 C   0  0  0  0  0  0  0  0  0  0  0  0
   -1.3031   -0.7711   -1.2659 C   0  0  0  0  0  0  0  0  0  0  0  0
   -2.5788   -1.3032   -1.1522 C   0  0  0  0  0  0  0  0  0  0  0  0
   -3.4456   -0.7776   -0.2090 C   0  0  0  0  0  0  0  0  0  0  0  0
   -3.0061    0.1551    0.7222 C   0  0  0  0  0  0  0  0  0  0  0  0
   -1.6780    0.5622    0.6785 C   0  0  0  0  0  0  0  0  0  0  0  0
   -1.1546    2.0387    1.4845 Cl  0  0  0  0  0  0  0  0  0  0  0  0
    1.0837    1.2277    0.7216 C   0  0  0  0  0  0  0  0  0  0  0  0
    2.5755    1.4068    0.7376 C   0  0  0  0  0  0  0  0  0  0  0  0
    3.2302    1.0849   -0.5781 C   0  0  0  0  0  0  0  0  0  0  0  0
    2.2183    0.6987   -1.6443 C   0  0  0  0  0  0  0  0  0  0  0  0
    1.3914   -0.3962   -1.0680 C   0  0  0  0  0  0  0  0  0  0  0  0
    1.2496   -1.4844   -1.5907 O   0  0  0  0  0  0  0  0  0  0  0  0
  1  2  1  0
  3  2  1  1
  3  4  1  0
  4  5  2  0
  5  6  1  0
  6  7  2  0
  7  8  1  0
  8  9  2  0
  9 10  1  0
  3 11  1  0
 11 12  1  0
 12 13  1  0
 13 14  1  0
 14 15  1  0
 15 16  2  0
 15  3  1  0
  9  4  1  0
M  END
>  <zinc_id>  (518) 
ZINC000036294079

>  <smiles>  (518) 
CN[C@@]1(c2ccccc2Cl)CCCCC1=O

$$$$

     RDKit          3D

 14 15  0  0  0  0  0  0  0  0999 V2000
   -3.5918   -1.0937   -0.2708 C   0  0  0  0  0  0  0  0  0  0  0  0
   -2.2590   -0.7239    0.1793 N   0  0  0  0  0  0  0  0  0  0  0  0
   -1.3440   -1.6429    0.4893 N   0  0  0  0  0  0  0  0  0  0  0  0
   -0.0755   -1.3161    0.3963 N   0  0  0  0  0  0  0  0  0  0  0  0
    0.3293   -0.1462   -0.1175 C   0  0  0  0  0  0  0  0  0  0  0  0
    1.5788    0.4166   -0.3472 C   0  0  0  0  0  0  0  0  0  0  0  0
    2.8060   -0.2526    0.1066 C   0  0  0  0  0  0  0  0  0  0  0  0
    3.1143   -1.4842   -0.5580 N   0  0  0  0  0  0  0  0  0  0  0  0
    3.0529   -0.2620    1.3520 O   0  0  0  0  0  0  0  0  0  0  0  0
    1.4095    1.6720   -0.7749 N   0  0  0  0  0  0  0  0  0  0  0  0
    0.1077    1.9540   -0.5236 C   0  0  0  0  0  0  0  0  0  0  0  0
   -0.5662    0.8502   -0.1991 N   0  0  0  0  0  0  0  0  0  0  0  0
   -1.8443    0.5591    0.1434 C   0  0  0  0  0  0  0  0  0  0  0  0
   -2.7177    1.4698    0.1243 O   0  0  0  0  0  0  0  0  0  0  0  0
  1  2  1  0
  2  3  1  0
  3  4  2  0
  4  5  1  0
  5  6  2  0
  6  7  1  0
  7  8  1  0
  7  9  2  0
  6 10  1  0
 10 11  2  0
 11 12  1  0
 12 13  1  0
 13 14  2  0
 13  2  1  0
 12  5  1  0
M  END
>  <zinc_id>  (519) 
ZINC000001482184

>  <smiles>  (519) 
Cn1nnc2c(C(N)=O)ncn2c1=O

$$$$

     RDKit          3D

 23 24  0  0  0  0  0  0  0  0999 V2000
   -3.8247   -1.8762    3.5170 C   0  0  0  0  0  0  0  0  0  0  0  0
   -2.9087   -1.7139    2.3500 C   0  0  0  0  0  0  0  0  0  0  0  0
   -1.7950   -2.3111    2.4037 O   0  0  0  0  0  0  0  0  0  0  0  0
   -2.9592   -0.6277    1.4854 O   0  0  0  0  0  0  0  0  0  0  0  0
   -1.8634    0.2165    1.2210 C   0  0  0  0  0  0  0  0  0  0  0  0
   -1.3395    0.1564   -0.1646 C   0  0  0  0  0  0  0  0  0  0  0  0
   -0.8075   -1.1588   -0.6087 C   0  0  0  0  0  0  0  0  0  0  0  0
    0.6074   -1.3041   -0.1413 C   0  0  0  0  0  0  0  0  0  0  0  0
    1.5029   -0.3285   -0.7594 N   0  0  0  0  0  0  0  0  0  0  0  0
    1.6359   -0.0740   -2.0826 C   0  0  0  0  0  0  0  0  0  0  0  0
    2.9212    0.2530   -2.3613 N   0  0  0  0  0  0  0  0  0  0  0  0
    3.6294    0.1587   -1.2094 C   0  0  0  0  0  0  0  0  0  0  0  0
    4.9850    0.2400   -0.9126 C   0  0  0  0  0  0  0  0  0  0  0  0
    5.3128    0.2257    0.4014 N   0  0  0  0  0  0  0  0  0  0  0  0
    4.3664    0.4416    1.3407 C   0  0  0  0  0  0  0  0  0  0  0  0
    4.7235    1.0216    2.5919 N   0  0  0  0  0  0  0  0  0  0  0  0
    3.0516    0.2701    1.0711 N   0  0  0  0  0  0  0  0  0  0  0  0
    2.6592    0.1260   -0.2169 C   0  0  0  0  0  0  0  0  0  0  0  0
   -2.1065    0.9216   -1.1844 C   0  0  0  0  0  0  0  0  0  0  0  0
   -3.4125    0.4547   -1.4079 O   0  0  0  0  0  0  0  0  0  0  0  0
   -4.3975    1.4292   -1.5976 C   0  0  0  0  0  0  0  0  0  0  0  0
   -5.8255    1.1964   -1.2382 C   0  0  0  0  0  0  0  0  0  0  0  0
   -4.1551    2.2829   -2.4972 O   0  0  0  0  0  0  0  0  0  0  0  0
  1  2  1  0
  2  3  2  0
  2  4  1  0
  4  5  1  0
  5  6  1  0
  6  7  1  0
  7  8  1  0
  8  9  1  0
  9 10  1  0
 10 11  2  0
 11 12  1  0
 12 13  2  0
 13 14  1  0
 14 15  2  0
 15 16  1  0
 15 17  1  0
 17 18  2  0
  6 19  1  0
 19 20  1  0
 20 21  1  0
 21 22  1  0
 21 23  2  0
 18  9  1  0
 18 12  1  0
M  END
>  <zinc_id>  (520) 
ZINC000001530635

>  <smiles>  (520) 
CC(=O)OCC(CCn1cnc2cnc(N)nc21)COC(C)=O

$$$$

     RDKit          3D

 25 27  0  0  0  0  0  0  0  0999 V2000
    7.6188    0.1212   -0.9479 C   0  0  0  0  0  0  0  0  0  0  0  0
    7.0491   -0.0687    0.2250 O   0  0  0  0  0  0  0  0  0  0  0  0
    6.0401   -1.0283    0.0454 C   0  0  0  0  0  0  0  0  0  0  0  0
    5.2993   -0.6138   -1.2165 C   0  0  0  0  0  0  0  0  0  0  0  0
    4.9361    0.8417   -1.0627 C   0  0  0  0  0  0  0  0  0  0  0  0
    3.6103    1.1233   -1.4340 O   0  0  0  0  0  0  0  0  0  0  0  0
    2.6448    1.2652   -0.4428 C   0  0  0  0  0  0  0  0  0  0  0  0
    2.2973    2.4962    0.0819 C   0  0  0  0  0  0  0  0  0  0  0  0
    1.3698    2.5731    1.1133 C   0  0  0  0  0  0  0  0  0  0  0  0
    0.6059    1.4909    1.3468 N   0  0  0  0  0  0  0  0  0  0  0  0
    0.9040    0.2905    0.7948 C   0  0  0  0  0  0  0  0  0  0  0  0
   -0.0766   -0.7915    0.9616 C   0  0  0  0  0  0  0  0  0  0  0  0
   -0.9318   -1.1608   -0.6246 S   0  0  0  0  0  0  0  0  0  0  0  0
   -0.8946    0.2348   -1.3154 O   0  0  0  0  0  0  0  0  0  0  0  0
   -2.6578   -1.1723   -0.0701 C   0  0  0  0  0  0  0  0  0  0  0  0
   -3.6889   -1.7479   -0.7343 N   0  0  0  0  0  0  0  0  0  0  0  0
   -4.8587   -1.2126   -0.3297 C   0  0  0  0  0  0  0  0  0  0  0  0
   -6.1303   -1.0991   -0.8641 C   0  0  0  0  0  0  0  0  0  0  0  0
   -7.0345   -0.1717   -0.3732 C   0  0  0  0  0  0  0  0  0  0  0  0
   -6.7915    0.3010    0.9086 C   0  0  0  0  0  0  0  0  0  0  0  0
   -5.5155    0.2365    1.4544 C   0  0  0  0  0  0  0  0  0  0  0  0
   -4.5495   -0.5636    0.8591 C   0  0  0  0  0  0  0  0  0  0  0  0
   -3.2265   -0.3542    0.8165 N   0  0  0  0  0  0  0  0  0  0  0  0
    1.9395    0.1323   -0.0994 C   0  0  0  0  0  0  0  0  0  0  0  0
    2.0411   -1.1219   -0.8856 C   0  0  0  0  0  0  0  0  0  0  0  0
  1  2  1  0
  2  3  1  0
  3  4  1  0
  4  5  1  0
  5  6  1  0
  6  7  1  0
  7  8  2  0
  8  9  1  0
  9 10  2  0
 10 11  1  0
 11 12  1  0
 13 12  1  1
 13 14  2  0
 13 15  1  0
 15 16  2  0
 16 17  1  0
 17 18  2  0
 18 19  1  0
 19 20  2  0
 20 21  1  0
 21 22  2  0
 22 23  1  0
 11 24  2  0
 24 25  1  0
 24  7  1  0
 23 15  1  0
 22 17  1  0
M  END
>  <zinc_id>  (521) 
ZINC000001530935

>  <smiles>  (521) 
COCCCOc1ccnc(C[S@](=O)c2nc3ccccc3[nH]2)c1C

$$$$

     RDKit          3D

 21 24  0  0  0  0  0  0  0  0999 V2000
    5.0026   -1.8999    0.3004 C   0  0  0  0  0  0  0  0  0  0  0  0
    4.7265   -0.4701    0.3025 N   0  0  0  0  0  0  0  0  0  0  0  0
    3.6098   -0.2726   -0.6197 C   0  0  0  0  0  0  0  0  0  0  0  0
    2.4372   -1.0159    0.0063 C   0  0  0  0  0  0  0  0  0  0  0  0
    1.2010   -0.9297   -0.8750 C   0  0  0  0  0  0  0  0  0  0  0  0
    0.1035   -0.3288   -0.0676 C   0  0  0  0  0  0  0  0  0  0  0  0
    0.3349   -0.4408    1.4333 C   0  0  0  0  0  0  0  0  0  0  0  0
   -0.8091    0.1789    2.1837 C   0  0  0  0  0  0  0  0  0  0  0  0
   -1.8814    0.7378    1.2536 C   0  0  0  0  0  0  0  0  0  0  0  0
   -2.2826   -0.4210    0.3912 C   0  0  0  0  0  0  0  0  0  0  0  0
   -3.3431   -1.2392    0.7645 C   0  0  0  0  0  0  0  0  0  0  0  0
   -3.3226   -2.5937    0.4524 C   0  0  0  0  0  0  0  0  0  0  0  0
   -2.5001   -2.9333   -0.6155 C   0  0  0  0  0  0  0  0  0  0  0  0
   -1.3463   -2.2127   -0.8979 C   0  0  0  0  0  0  0  0  0  0  0  0
   -1.2208   -0.9875   -0.3063 C   0  0  0  0  0  0  0  0  0  0  0  0
   -1.1594    1.7054    0.3652 C   0  0  0  0  0  0  0  0  0  0  0  0
   -1.0621    3.0556    0.6819 C   0  0  0  0  0  0  0  0  0  0  0  0
    0.0191    3.7912    0.2101 C   0  0  0  0  0  0  0  0  0  0  0  0
    0.8417    3.2464   -0.7680 C   0  0  0  0  0  0  0  0  0  0  0  0
    0.7426    1.8965   -1.0797 C   0  0  0  0  0  0  0  0  0  0  0  0
   -0.0913    1.1332   -0.3193 C   0  0  0  0  0  0  0  0  0  0  0  0
  1  2  1  0
  2  3  1  0
  3  4  1  0
  4  5  1  0
  5  6  1  0
  6  7  1  0
  7  8  1  0
  8  9  1  0
  9 10  1  0
 10 11  2  0
 11 12  1  0
 12 13  2  0
 13 14  1  0
 14 15  2  0
  9 16  1  0
 16 17  2  0
 17 18  1  0
 18 19  2  0
 19 20  1  0
 20 21  2  0
 15  6  1  0
 21 16  1  0
 21  6  1  0
 15 10  1  0
M  END
>  <zinc_id>  (522) 
ZINC000001530688

>  <smiles>  (522) 
CNCCCC12CCC(c3ccccc31)c1ccccc12

$$$$

     RDKit          3D

 20 21  0  0  0  0  0  0  0  0999 V2000
   -3.8848   -2.8162    1.1144 C   0  0  0  0  0  0  0  0  0  0  0  0
   -2.8312   -2.8222    0.3962 N   0  0  0  0  0  0  0  0  0  0  0  0
   -3.0921   -2.6225   -1.0245 C   0  0  0  0  0  0  0  0  0  0  0  0
   -1.9496   -1.7664    0.8575 C   0  0  0  0  0  0  0  0  0  0  0  0
   -0.5574   -1.9241    0.3086 C   0  0  0  0  0  0  0  0  0  0  0  0
   -0.3050   -0.8420   -0.5161 O   0  0  0  0  0  0  0  0  0  0  0  0
    0.3220    0.2126    0.1549 C   0  0  1  0  0  0  0  0  0  0  0  0
   -0.1002    0.2340    1.6201 C   0  0  0  0  0  0  0  0  0  0  0  0
    1.7890    0.1033    0.0264 C   0  0  0  0  0  0  0  0  0  0  0  0
    2.3264   -0.5427   -1.0815 C   0  0  0  0  0  0  0  0  0  0  0  0
    3.5579   -1.1571   -1.0639 C   0  0  0  0  0  0  0  0  0  0  0  0
    4.2777   -1.2225    0.1010 C   0  0  0  0  0  0  0  0  0  0  0  0
    3.7701   -0.6257    1.2255 C   0  0  0  0  0  0  0  0  0  0  0  0
    2.5650    0.0460    1.1774 C   0  0  0  0  0  0  0  0  0  0  0  0
   -0.2161    1.4652   -0.4449 C   0  0  0  0  0  0  0  0  0  0  0  0
   -1.5469    1.4585   -0.8450 C   0  0  0  0  0  0  0  0  0  0  0  0
   -2.3555    2.5696   -0.7734 C   0  0  0  0  0  0  0  0  0  0  0  0
   -1.7419    3.7722   -0.5009 C   0  0  0  0  0  0  0  0  0  0  0  0
   -0.3575    3.7997   -0.5218 C   0  0  0  0  0  0  0  0  0  0  0  0
    0.3302    2.6802   -0.2100 N   0  0  0  0  0  0  0  0  0  0  0  0
  1  2  1  0
  2  3  1  0
  2  4  1  0
  4  5  1  0
  5  6  1  0
  7  6  1  6
  7  8  1  0
  7  9  1  0
  9 10  2  0
 10 11  1  0
 11 12  2  0
 12 13  1  0
 13 14  2  0
  7 15  1  0
 15 16  2  0
 16 17  1  0
 17 18  2  0
 18 19  1  0
 19 20  2  0
 14  9  1  0
 20 15  1  0
M  END
>  <zinc_id>  (523) 
ZINC000000000242

>  <smiles>  (523) 
CN(C)CCO[C@@](C)(c1ccccc1)c1ccccn1

$$$$

     RDKit          3D

 20 21  0  0  0  0  0  0  0  0999 V2000
    0.7884   -2.2243   -1.4915 C   0  0  0  0  0  0  0  0  0  0  0  0
   -0.0812   -2.3148   -0.5621 C   0  0  0  0  0  0  0  0  0  0  0  0
   -0.3915   -3.5787   -0.0699 C   0  0  0  0  0  0  0  0  0  0  0  0
   -1.2521   -3.7215    1.0135 C   0  0  0  0  0  0  0  0  0  0  0  0
   -1.8190   -2.5894    1.5820 C   0  0  0  0  0  0  0  0  0  0  0  0
   -1.3180   -1.3552    1.1860 C   0  0  0  0  0  0  0  0  0  0  0  0
   -0.8726   -1.2636   -0.0983 C   0  0  0  0  0  0  0  0  0  0  0  0
   -0.1941    0.1583   -0.5304 C   0  0  2  0  0  0  0  0  0  0  0  0
    0.7583    0.1547    0.6743 O   0  0  0  0  0  0  0  0  0  0  0  0
    1.7593    0.9779    0.1419 C   0  0  0  0  0  0  0  0  0  0  0  0
    3.1044    0.7699    0.7706 C   0  0  0  0  0  0  0  0  0  0  0  0
    4.1502    0.7102   -0.2495 N   0  0  0  0  0  0  0  0  0  0  0  0
    4.0511   -0.5731   -0.8990 C   0  0  0  0  0  0  0  0  0  0  0  0
    3.9984    1.8191   -1.1841 C   0  0  0  0  0  0  0  0  0  0  0  0
   -1.3018    1.0556    0.2748 C   0  0  0  0  0  0  0  0  0  0  0  0
   -2.5774    0.9079   -0.2582 C   0  0  0  0  0  0  0  0  0  0  0  0
   -3.4313    1.9829   -0.0434 C   0  0  0  0  0  0  0  0  0  0  0  0
   -2.9464    3.2721    0.0319 C   0  0  0  0  0  0  0  0  0  0  0  0
   -1.6141    3.4669    0.3143 C   0  0  0  0  0  0  0  0  0  0  0  0
   -0.8105    2.3453    0.4435 C   0  0  0  0  0  0  0  0  0  0  0  0
  1  2  1  0
  2  3  2  0
  3  4  1  0
  4  5  2  0
  5  6  1  0
  6  7  2  0
  8  7  1  1
  8  9  1  0
  9 10  1  0
 10 11  1  0
 11 12  1  0
 12 13  1  0
 12 14  1  0
  8 15  1  0
 15 16  2  0
 16 17  1  0
 17 18  2  0
 18 19  1  0
 19 20  2  0
  7  2  1  0
 20 15  1  0
M  END
>  <zinc_id>  (524) 
ZINC000000000565

>  <smiles>  (524) 
Cc1ccccc1[C@H](OCCN(C)C)c1ccccc1

$$$$

     RDKit          3D

 21 22  0  0  0  0  0  0  0  0999 V2000
   -5.0170    2.0967   -0.4854 C   0  0  0  0  0  0  0  0  0  0  0  0
   -4.8832    0.6011   -0.4920 C   0  0  0  0  0  0  0  0  0  0  0  0
   -5.9136   -0.0525   -1.4055 C   0  0  0  0  0  0  0  0  0  0  0  0
   -5.1885    0.0887    0.9117 C   0  0  0  0  0  0  0  0  0  0  0  0
   -3.5916    0.1515   -0.9488 N   0  0  0  0  0  0  0  0  0  0  0  0
   -2.7824   -0.4260    0.0930 C   0  0  0  0  0  0  0  0  0  0  0  0
   -1.6478    0.7479    0.3135 C   0  0  1  0  0  0  0  0  0  0  0  0
   -2.1589    1.0520    1.7089 O   0  0  0  0  0  0  0  0  0  0  0  0
   -0.5528   -0.3400    0.8892 C   0  0  0  0  0  0  0  0  0  0  0  0
   -0.1098   -0.9928   -0.2846 O   0  0  0  0  0  0  0  0  0  0  0  0
    1.2217   -1.4230   -0.2812 C   0  0  0  0  0  0  0  0  0  0  0  0
    1.5021   -2.7195    0.1337 C   0  0  0  0  0  0  0  0  0  0  0  0
    2.7506   -2.9752    0.6874 C   0  0  0  0  0  0  0  0  0  0  0  0
    3.6230   -1.9361    0.9872 C   0  0  0  0  0  0  0  0  0  0  0  0
    3.4759   -0.7318    0.3100 C   0  0  0  0  0  0  0  0  0  0  0  0
    2.2499   -0.4877   -0.2960 C   0  0  0  0  0  0  0  0  0  0  0  0
    2.0578    0.6705   -1.1988 C   0  0  0  0  0  0  0  0  0  0  0  0
    2.8112    1.8944   -0.7718 C   0  0  0  0  0  0  0  0  0  0  0  0
    3.7021    1.6770    0.3800 C   0  0  0  0  0  0  0  0  0  0  0  0
    4.2301    2.6993    0.8955 O   0  0  0  0  0  0  0  0  0  0  0  0
    4.2212    0.4054    0.7635 N   0  0  0  0  0  0  0  0  0  0  0  0
  1  2  1  0
  2  3  1  0
  2  4  1  0
  2  5  1  0
  5  6  1  0
  7  6  1  6
  7  8  1  0
  7  9  1  0
  9 10  1  0
 10 11  1  0
 11 12  2  0
 12 13  1  0
 13 14  2  0
 14 15  1  0
 15 16  2  0
 16 17  1  0
 17 18  1  0
 18 19  1  0
 19 20  2  0
 19 21  1  0
 16 11  1  0
 21 15  1  0
M  END
>  <zinc_id>  (525) 
ZINC000000000128

>  <smiles>  (525) 
CC(C)(C)NC[C@@H](O)COc1cccc2c1CCC(=O)N2

$$$$

     RDKit          3D

 25 27  0  0  0  0  0  0  0  0999 V2000
    6.0511   -1.2053    1.4563 Cl  0  0  0  0  0  0  0  0  0  0  0  0
    5.0222   -0.9026    0.1023 C   0  0  0  0  0  0  0  0  0  0  0  0
    5.0439    0.3010   -0.5919 C   0  0  0  0  0  0  0  0  0  0  0  0
    3.8544    0.7668   -1.1387 C   0  0  0  0  0  0  0  0  0  0  0  0
    2.6778    0.0301   -1.0628 C   0  0  0  0  0  0  0  0  0  0  0  0
    1.4915    0.6060   -1.7224 C   0  0  0  0  0  0  0  0  0  0  0  0
    0.1889    0.0636   -1.2070 C   0  0  0  0  0  0  0  0  0  0  0  0
   -0.7524    1.3530   -1.1721 C   0  0  2  0  0  0  0  0  0  0  0  0
   -0.1316    1.8979    0.1956 C   0  0  0  0  0  0  0  0  0  0  0  0
   -1.1329    2.7567    0.8117 N   0  0  0  0  0  0  0  0  0  0  0  0
   -2.1320    2.4160    1.6617 C   0  0  0  0  0  0  0  0  0  0  0  0
   -2.3795    3.4306    2.5475 C   0  0  0  0  0  0  0  0  0  0  0  0
   -1.4974    4.3909    2.2490 N   0  0  0  0  0  0  0  0  0  0  0  0
   -0.8286    4.0326    1.1532 C   0  0  0  0  0  0  0  0  0  0  0  0
   -2.2625    0.5456   -0.3312 S   0  0  0  0  0  0  0  0  0  0  0  0
   -2.2078   -1.1941   -0.4364 C   0  0  0  0  0  0  0  0  0  0  0  0
   -3.0722   -1.8803   -1.2712 C   0  0  0  0  0  0  0  0  0  0  0  0
   -3.7908   -1.0239   -2.6283 Cl  0  0  0  0  0  0  0  0  0  0  0  0
   -3.5409   -3.1527   -0.9730 C   0  0  0  0  0  0  0  0  0  0  0  0
   -3.0621   -3.8012    0.1511 C   0  0  0  0  0  0  0  0  0  0  0  0
   -2.0925   -3.2127    0.9158 C   0  0  0  0  0  0  0  0  0  0  0  0
   -1.7527   -1.8999    0.6713 C   0  0  0  0  0  0  0  0  0  0  0  0
   -0.5875   -1.1870    1.7833 Cl  0  0  0  0  0  0  0  0  0  0  0  0
    2.8537   -1.3339   -0.8604 C   0  0  0  0  0  0  0  0  0  0  0  0
    4.0397   -1.7973   -0.3036 C   0  0  0  0  0  0  0  0  0  0  0  0
  1  2  1  0
  2  3  2  0
  3  4  1  0
  4  5  2  0
  5  6  1  0
  6  7  1  0
  8  7  1  1
  8  9  1  0
  9 10  1  0
 10 11  1  0
 11 12  2  0
 12 13  1  0
 13 14  2  0
  8 15  1  0
 15 16  1  0
 16 17  2  0
 17 18  1  0
 17 19  1  0
 19 20  2  0
 20 21  1  0
 21 22  2  0
 22 23  1  0
  5 24  1  0
 24 25  2  0
 25  2  1  0
 14 10  1  0
 22 16  1  0
M  END
>  <zinc_id>  (526) 
ZINC000001530974

>  <smiles>  (526) 
Clc1ccc(CC[C@H](Cn2ccnc2)Sc2c(Cl)cccc2Cl)cc1

$$$$

     RDKit          3D

 25 28  0  0  0  0  0  0  0  0999 V2000
   -3.8309   -4.3768    1.1412 C   0  0  0  0  0  0  0  0  0  0  0  0
   -3.0310   -3.9611   -0.2593 S   0  0  0  0  0  0  0  0  0  0  0  0
   -3.0033   -2.1978   -0.5614 C   0  0  0  0  0  0  0  0  0  0  0  0
   -4.1988   -1.5233   -0.3473 C   0  0  0  0  0  0  0  0  0  0  0  0
   -4.1342   -0.1412   -0.4541 C   0  0  0  0  0  0  0  0  0  0  0  0
   -2.9689    0.5573   -0.5989 C   0  0  0  0  0  0  0  0  0  0  0  0
   -1.7814   -0.1146   -0.4700 C   0  0  0  0  0  0  0  0  0  0  0  0
   -1.8171   -1.4873   -0.6854 C   0  0  0  0  0  0  0  0  0  0  0  0
   -0.5066    0.4840   -0.4220 N   0  0  0  0  0  0  0  0  0  0  0  0
    0.5798   -0.1757   -1.1440 C   0  0  0  0  0  0  0  0  0  0  0  0
    1.3150   -1.1809   -0.3023 C   0  0  0  0  0  0  0  0  0  0  0  0
    2.7374   -0.4028    0.1006 C   0  0  1  0  0  0  0  0  0  0  0  0
    2.6839   -1.0147    1.6542 C   0  0  0  0  0  0  0  0  0  0  0  0
    4.0129   -0.4618    2.1584 C   0  0  0  0  0  0  0  0  0  0  0  0
    5.1794   -1.0270    1.3958 C   0  0  0  0  0  0  0  0  0  0  0  0
    4.9401   -1.1170   -0.0846 C   0  0  0  0  0  0  0  0  0  0  0  0
    3.6135   -1.6451   -0.4007 N   0  0  0  0  0  0  0  0  0  0  0  0
    3.5028   -1.5683   -1.8569 C   0  0  0  0  0  0  0  0  0  0  0  0
   -0.3347    1.8489   -0.1233 C   0  0  0  0  0  0  0  0  0  0  0  0
    0.9572    2.3588   -0.0984 C   0  0  0  0  0  0  0  0  0  0  0  0
    1.2447    3.6557    0.2296 C   0  0  0  0  0  0  0  0  0  0  0  0
    0.2126    4.5547    0.2938 C   0  0  0  0  0  0  0  0  0  0  0  0
   -1.0608    4.0234    0.4634 C   0  0  0  0  0  0  0  0  0  0  0  0
   -1.3123    2.6654    0.4071 C   0  0  0  0  0  0  0  0  0  0  0  0
   -2.9994    2.2471   -0.0354 S   0  0  0  0  0  0  0  0  0  0  0  0
  1  2  1  0
  2  3  1  0
  3  4  2  0
  4  5  1  0
  5  6  2  0
  6  7  1  0
  7  8  2  0
  7  9  1  0
  9 10  1  0
 10 11  1  0
 12 11  1  6
 12 13  1  0
 13 14  1  0
 14 15  1  0
 15 16  1  0
 16 17  1  0
 17 18  1  0
  9 19  1  0
 19 20  2  0
 20 21  1  0
 21 22  2  0
 22 23  1  0
 23 24  2  0
 24 25  1  0
  8  3  1  0
 17 12  1  0
 24 19  1  0
 25  6  1  0
M  END
>  <zinc_id>  (527) 
ZINC000001530697

>  <smiles>  (527) 
CSc1ccc2c(c1)N(CC[C@H]1CCCCN1C)c1ccccc1S2

$$$$

     RDKit          3D

 18 18  0  0  0  0  0  0  0  0999 V2000
    3.8986    2.3049    0.0395 C   0  0  0  0  0  0  0  0  0  0  0  0
    5.1336    1.5315   -0.3666 C   0  0  0  0  0  0  0  0  0  0  0  0
    4.8689    0.0568   -0.5199 C   0  0  0  0  0  0  0  0  0  0  0  0
    3.3710   -0.1830   -0.6662 C   0  0  0  0  0  0  0  0  0  0  0  0
    2.7078   -0.2401    0.6137 N   0  0  0  0  0  0  0  0  0  0  0  0
    1.5803   -1.1190    0.7052 C   0  0  0  0  0  0  0  0  0  0  0  0
    1.2372   -1.7425    1.9087 O   0  0  0  0  0  0  0  0  0  0  0  0
    0.6727   -1.0147   -0.2204 N   0  0  0  0  0  0  0  0  0  0  0  0
   -0.8822   -1.7263    0.0851 S   0  0  0  0  0  0  0  0  0  0  0  0
   -1.1242   -2.8917   -0.8495 O   0  0  0  0  0  0  0  0  0  0  0  0
   -0.9318   -2.3122    1.4778 O   0  0  0  0  0  0  0  0  0  0  0  0
   -2.1672   -0.5560   -0.0135 C   0  0  0  0  0  0  0  0  0  0  0  0
   -2.4835    0.1134   -1.1880 C   0  0  0  0  0  0  0  0  0  0  0  0
   -3.0294    1.3847   -1.1167 C   0  0  0  0  0  0  0  0  0  0  0  0
   -3.3469    1.9830    0.0966 C   0  0  0  0  0  0  0  0  0  0  0  0
   -3.1693    3.4568    0.2767 C   0  0  0  0  0  0  0  0  0  0  0  0
   -3.4110    1.1269    1.1861 C   0  0  0  0  0  0  0  0  0  0  0  0
   -2.9246   -0.1723    1.0879 C   0  0  0  0  0  0  0  0  0  0  0  0
  1  2  1  0
  2  3  1  0
  3  4  1  0
  4  5  1  0
  5  6  1  0
  6  7  1  0
  6  8  2  0
  8  9  1  0
  9 10  2  0
  9 11  2  0
  9 12  1  0
 12 13  2  0
 13 14  1  0
 14 15  2  0
 15 16  1  0
 15 17  1  0
 17 18  2  0
 18 12  1  0
M  END
>  <zinc_id>  (528) 
ZINC000001530703

>  <smiles>  (528) 
CCCCN/C(O)=N/S(=O)(=O)c1ccc(C)cc1

$$$$

     RDKit          3D

 23 24  0  0  0  0  0  0  0  0999 V2000
   -2.1406    0.2040    3.2391 C   0  0  0  0  0  0  0  0  0  0  0  0
   -1.9504    0.2271    1.9921 C   0  0  0  0  0  0  0  0  0  0  0  0
   -0.4821    0.3778    1.7274 C   0  0  0  0  0  0  0  0  0  0  0  0
    0.2113    0.6264    2.6977 O   0  0  0  0  0  0  0  0  0  0  0  0
    0.0897    0.0696    0.3741 C   0  0  0  0  0  0  0  0  0  0  0  0
    1.5732    0.2651    0.5104 C   0  0  0  0  0  0  0  0  0  0  0  0
    2.2616   -0.5891   -0.7182 C   0  0  2  0  0  0  0  0  0  0  0  0
    2.9506   -1.6668    0.3268 C   0  0  0  0  0  0  0  0  0  0  0  0
    3.5407    0.3404   -0.7374 N   0  0  0  0  0  0  0  0  0  0  0  0
    4.4618   -0.2827   -1.6529 C   0  0  0  0  0  0  0  0  0  0  0  0
    4.0134    0.4499    0.6010 C   0  0  0  0  0  0  0  0  0  0  0  0
   -0.4819    1.1336   -0.5133 C   0  0  0  0  0  0  0  0  0  0  0  0
    0.1891    2.2878   -0.7898 C   0  0  0  0  0  0  0  0  0  0  0  0
   -0.5077    3.4628   -0.9261 C   0  0  0  0  0  0  0  0  0  0  0  0
   -1.8963    3.4122   -0.9396 C   0  0  0  0  0  0  0  0  0  0  0  0
   -2.4965    2.2024   -1.2663 C   0  0  0  0  0  0  0  0  0  0  0  0
   -1.8026    1.0488   -0.9380 C   0  0  0  0  0  0  0  0  0  0  0  0
   -0.2920   -1.2908   -0.0839 C   0  0  0  0  0  0  0  0  0  0  0  0
   -0.6708   -1.4399   -1.4007 C   0  0  0  0  0  0  0  0  0  0  0  0
   -1.5708   -2.4134   -1.8190 C   0  0  0  0  0  0  0  0  0  0  0  0
   -2.1453   -3.2549   -0.9080 C   0  0  0  0  0  0  0  0  0  0  0  0
   -1.9254   -3.0192    0.4223 C   0  0  0  0  0  0  0  0  0  0  0  0
   -0.9288   -2.1512    0.8023 C   0  0  0  0  0  0  0  0  0  0  0  0
  1  2  1  0
  2  3  1  0
  3  4  2  0
  3  5  1  0
  5  6  1  0
  7  6  1  1
  7  8  1  0
  7  9  1  0
  9 10  1  0
  9 11  1  0
  5 12  1  0
 12 13  2  0
 13 14  1  0
 14 15  2  0
 15 16  1  0
 16 17  2  0
  5 18  1  0
 18 19  2  0
 19 20  1  0
 20 21  2  0
 21 22  1  0
 22 23  2  0
 17 12  1  0
 23 18  1  0
M  END
>  <zinc_id>  (529) 
ZINC000001530707

>  <smiles>  (529) 
CCC(=O)C(C[C@H](C)N(C)C)(c1ccccc1)c1ccccc1

$$$$

     RDKit          3D

 19 21  0  0  0  0  0  0  0  0999 V2000
    0.8279   -1.7190    1.7230 O   0  0  0  0  0  0  0  0  0  0  0  0
    0.8501   -0.7996    0.9855 C   0  0  0  0  0  0  0  0  0  0  0  0
    2.1207   -0.1427    0.6504 C   0  0  0  0  0  0  0  0  0  0  0  0
    3.4346   -0.2851    1.0588 C   0  0  0  0  0  0  0  0  0  0  0  0
    4.4923    0.2901    0.3666 C   0  0  0  0  0  0  0  0  0  0  0  0
    4.1828    1.2781   -0.5496 C   0  0  0  0  0  0  0  0  0  0  0  0
    2.8636    1.5497   -0.8682 C   0  0  0  0  0  0  0  0  0  0  0  0
    1.8414    0.8240   -0.2944 C   0  0  0  0  0  0  0  0  0  0  0  0
    0.5753    0.3942   -0.8987 C   0  0  0  0  0  0  0  0  0  0  0  0
   -0.0522    1.1030   -1.7435 O   0  0  0  0  0  0  0  0  0  0  0  0
   -0.1793   -0.2488    0.1439 N   0  0  0  0  0  0  0  0  0  0  0  0
   -1.2345   -1.3702   -0.3177 C   0  0  2  0  0  0  0  0  0  0  0  0
   -2.0235   -0.3252   -1.3647 C   0  0  0  0  0  0  0  0  0  0  0  0
   -3.4735   -0.4006   -1.0231 C   0  0  0  0  0  0  0  0  0  0  0  0
   -3.6147    0.6188    0.0780 C   0  0  0  0  0  0  0  0  0  0  0  0
   -3.7829    1.8105   -0.3239 O   0  0  0  0  0  0  0  0  0  0  0  0
   -2.6283    0.2967    1.0827 N   0  0  0  0  0  0  0  0  0  0  0  0
   -2.2021   -1.0456    0.9714 C   0  0  0  0  0  0  0  0  0  0  0  0
   -1.9978   -1.8283    1.9303 O   0  0  0  0  0  0  0  0  0  0  0  0
  1  2  2  0
  2  3  1  0
  3  4  2  0
  4  5  1  0
  5  6  2  0
  6  7  1  0
  7  8  2  0
  8  9  1  0
  9 10  2  0
  9 11  1  0
 12 11  1  1
 12 13  1  0
 13 14  1  0
 14 15  1  0
 15 16  2  0
 15 17  1  0
 17 18  1  0
 18 19  2  0
 11  2  1  0
 18 12  1  0
  8  3  1  0
M  END
>  <zinc_id>  (530) 
ZINC000001530948

>  <smiles>  (530) 
O=C1CC[C@@H](N2C(=O)c3ccccc3C2=O)C(=O)N1

$$$$

     RDKit          3D

 34 37  0  0  0  0  0  0  0  0999 V2000
   -4.8344    3.6333    0.0659 C   0  0  0  0  0  0  0  0  0  0  0  0
   -5.9121    3.1312    1.0018 C   0  0  0  0  0  0  0  0  0  0  0  0
   -5.5198    1.8256    1.6584 C   0  0  0  0  0  0  0  0  0  0  0  0
   -5.1156    0.8566    0.5933 C   0  0  0  0  0  0  0  0  0  0  0  0
   -5.9194    0.0355   -0.1258 N   0  0  0  0  0  0  0  0  0  0  0  0
   -5.1896   -0.4734   -1.1470 C   0  0  0  0  0  0  0  0  0  0  0  0
   -5.6216   -1.5064   -2.1390 C   0  0  0  0  0  0  0  0  0  0  0  0
   -4.0073    0.2393   -1.1588 C   0  0  0  0  0  0  0  0  0  0  0  0
   -2.8871    0.2273   -1.9754 C   0  0  0  0  0  0  0  0  0  0  0  0
   -3.0015   -0.3166   -3.1092 O   0  0  0  0  0  0  0  0  0  0  0  0
   -1.6886    0.4588   -1.3923 N   0  0  0  0  0  0  0  0  0  0  0  0
   -1.5460    0.5616   -0.0506 C   0  0  0  0  0  0  0  0  0  0  0  0
   -0.3782   -0.0217    0.6216 C   0  0  0  0  0  0  0  0  0  0  0  0
    0.8624    0.6035    0.6045 C   0  0  0  0  0  0  0  0  0  0  0  0
    1.9746    0.0074    1.1842 C   0  0  0  0  0  0  0  0  0  0  0  0
    3.6034    0.3815    0.6379 S   0  0  0  0  0  0  0  0  0  0  0  0
    3.6114    1.7875    0.1068 O   0  0  0  0  0  0  0  0  0  0  0  0
    4.5974    0.2266    1.7659 O   0  0  0  0  0  0  0  0  0  0  0  0
    3.9943   -0.7573   -0.5972 N   0  0  0  0  0  0  0  0  0  0  0  0
    4.1015   -0.1521   -1.8998 C   0  0  0  0  0  0  0  0  0  0  0  0
    5.4329    0.5067   -2.1416 C   0  0  0  0  0  0  0  0  0  0  0  0
    6.2064    0.3804   -0.9394 N   0  0  0  0  0  0  0  0  0  0  0  0
    7.3557    1.2367   -0.8820 C   0  0  0  0  0  0  0  0  0  0  0  0
    6.8546    2.6046   -0.4346 C   0  0  0  0  0  0  0  0  0  0  0  0
    6.4475   -0.9731   -0.5303 C   0  0  0  0  0  0  0  0  0  0  0  0
    5.1039   -1.6015   -0.2522 C   0  0  0  0  0  0  0  0  0  0  0  0
    1.7246   -1.1558    1.8969 C   0  0  0  0  0  0  0  0  0  0  0  0
    0.5291   -1.8370    1.8080 C   0  0  0  0  0  0  0  0  0  0  0  0
   -0.4479   -1.3670    0.9398 C   0  0  0  0  0  0  0  0  0  0  0  0
   -1.3156   -2.2486    0.3002 O   0  0  0  0  0  0  0  0  0  0  0  0
   -0.8186   -3.3308   -0.4567 C   0  0  0  0  0  0  0  0  0  0  0  0
   -1.6789   -4.5636   -0.3472 C   0  0  0  0  0  0  0  0  0  0  0  0
   -2.6578    0.9018    0.6471 N   0  0  0  0  0  0  0  0  0  0  0  0
   -3.8598    0.6990    0.1077 N   0  0  0  0  0  0  0  0  0  0  0  0
  1  2  1  0
  2  3  1  0
  3  4  1  0
  4  5  2  0
  5  6  1  0
  6  7  1  0
  6  8  2  0
  8  9  1  0
  9 10  2  0
  9 11  1  0
 11 12  1  0
 12 13  1  0
 13 14  2  0
 14 15  1  0
 15 16  1  0
 16 17  2  0
 16 18  2  0
 16 19  1  0
 19 20  1  0
 20 21  1  0
 21 22  1  0
 22 23  1  0
 23 24  1  0
 22 25  1  0
 25 26  1  0
 15 27  2  0
 27 28  1  0
 28 29  2  0
 29 30  1  0
 30 31  1  0
 31 32  1  0
 12 33  2  0
 33 34  1  0
 34  4  1  0
 34  8  1  0
 29 13  1  0
 26 19  1  0
M  END
>  <zinc_id>  (531) 
ZINC000018324776

>  <smiles>  (531) 
CCCc1nc(C)c2c(=O)[nH]c(-c3cc(S(=O)(=O)N4CCN(CC)CC4)ccc3OCC)nn12

$$$$

     RDKit          3D

 16 16  0  0  0  0  0  0  0  0999 V2000
    3.7486   -1.6266    0.6193 C   0  0  0  0  0  0  0  0  0  0  0  0
    3.1112   -1.0212   -0.4861 C   0  0  0  0  0  0  0  0  0  0  0  0
    1.6043   -0.9118   -0.2942 C   0  0  0  0  0  0  0  0  0  0  0  0
    1.4612    0.7029    0.0489 C   0  0  1  0  0  0  0  0  0  0  0  0
    1.6864    1.1290   -1.5360 C   0  0  0  0  0  0  0  0  0  0  0  0
   -0.1817    0.6849   -0.1073 C   0  0  0  0  0  0  0  0  0  0  0  0
   -0.6131    2.1052   -0.1841 C   0  0  0  0  0  0  0  0  0  0  0  0
    0.1328    2.8684    0.9058 C   0  0  0  0  0  0  0  0  0  0  0  0
   -0.5717   -0.1948   -1.1582 C   0  0  0  0  0  0  0  0  0  0  0  0
   -0.2002   -0.2760   -2.3557 O   0  0  0  0  0  0  0  0  0  0  0  0
   -1.8564   -0.8158   -0.9851 N   0  0  0  0  0  0  0  0  0  0  0  0
   -2.5073   -0.9348    0.2547 C   0  0  0  0  0  0  0  0  0  0  0  0
   -3.6020   -1.5630    0.3657 O   0  0  0  0  0  0  0  0  0  0  0  0
   -1.6996   -0.7063    1.4140 N   0  0  0  0  0  0  0  0  0  0  0  0
   -0.5477    0.0979    1.2159 C   0  0  0  0  0  0  0  0  0  0  0  0
    0.0351    0.4621    2.2824 O   0  0  0  0  0  0  0  0  0  0  0  0
  1  2  1  0
  2  3  1  0
  4  3  1  6
  4  5  1  0
  4  6  1  0
  6  7  1  0
  7  8  1  0
  6  9  1  0
  9 10  2  0
  9 11  1  0
 11 12  1  0
 12 13  2  0
 12 14  1  0
 14 15  1  0
 15 16  2  0
 15  6  1  0
M  END
>  <zinc_id>  (532) 
ZINC000013545634

>  <smiles>  (532) 
CCC[C@@H](C)C1(CC)C(=O)NC(=O)NC1=O

$$$$

     RDKit          3D

 28 30  0  0  0  0  0  0  0  0999 V2000
    5.6603   -1.8329   -0.0747 C   0  0  0  0  0  0  0  0  0  0  0  0
    4.7095   -2.5992   -0.8750 N   0  0  0  0  0  0  0  0  0  0  0  0
    5.1235   -2.9553   -2.2140 C   0  0  0  0  0  0  0  0  0  0  0  0
    3.3118   -2.3796   -0.6497 C   0  0  0  0  0  0  0  0  0  0  0  0
    2.9319   -2.0787    0.6517 C   0  0  0  0  0  0  0  0  0  0  0  0
    1.6260   -1.6883    0.8786 C   0  0  0  0  0  0  0  0  0  0  0  0
    1.0012   -0.9556   -0.1164 C   0  0  0  0  0  0  0  0  0  0  0  0
   -0.1053   -0.0695    0.2521 C   0  0  0  0  0  0  0  0  0  0  0  0
   -1.4938   -0.5455    0.3058 C   0  0  0  0  0  0  0  0  0  0  0  0
   -1.8645   -1.6275    1.0944 C   0  0  0  0  0  0  0  0  0  0  0  0
   -3.0730   -2.2537    0.8980 C   0  0  0  0  0  0  0  0  0  0  0  0
   -3.8259   -1.9793   -0.2317 C   0  0  0  0  0  0  0  0  0  0  0  0
   -5.2085   -2.3508   -0.2776 N   0  0  0  0  0  0  0  0  0  0  0  0
   -6.0485   -1.7667    0.7603 C   0  0  0  0  0  0  0  0  0  0  0  0
   -5.7977   -2.4082   -1.6118 C   0  0  0  0  0  0  0  0  0  0  0  0
   -3.3223   -1.0709   -1.1492 C   0  0  0  0  0  0  0  0  0  0  0  0
   -2.3580   -0.1717   -0.7112 C   0  0  0  0  0  0  0  0  0  0  0  0
    0.0720    1.2251    0.4188 C   0  0  0  0  0  0  0  0  0  0  0  0
    0.5973    1.7186    1.6977 C   0  0  0  0  0  0  0  0  0  0  0  0
    0.7931    3.0149    1.8937 C   0  0  0  0  0  0  0  0  0  0  0  0
    0.4780    3.9683    0.8315 C   0  0  0  0  0  0  0  0  0  0  0  0
    1.1898    5.0412    0.6504 N   0  0  0  0  0  0  0  0  0  0  0  0
    1.3684    5.6342   -0.6635 C   0  0  0  0  0  0  0  0  0  0  0  0
    1.6950    5.6888    1.8364 C   0  0  0  0  0  0  0  0  0  0  0  0
   -0.4694    3.4892   -0.1830 C   0  0  0  0  0  0  0  0  0  0  0  0
   -0.7333    2.1914   -0.3386 C   0  0  0  0  0  0  0  0  0  0  0  0
    1.2430   -1.3550   -1.4126 C   0  0  0  0  0  0  0  0  0  0  0  0
    2.4993   -1.8834   -1.6606 C   0  0  0  0  0  0  0  0  0  0  0  0
  1  2  1  0
  2  3  1  0
  2  4  1  0
  4  5  2  0
  5  6  1  0
  6  7  2  0
  7  8  1  0
  8  9  1  0
  9 10  2  0
 10 11  1  0
 11 12  2  0
 12 13  1  0
 13 14  1  0
 13 15  1  0
 12 16  1  0
 16 17  2  0
  8 18  2  3
 18 19  1  0
 19 20  2  0
 20 21  1  0
 21 22  2  3
 22 23  1  0
 22 24  1  0
 21 25  1  0
 25 26  2  0
  7 27  1  0
 27 28  2  0
 28  4  1  0
 17  9  1  0
 26 18  1  0
M  CHG  1  22   1
M  END
>  <zinc_id>  (533) 
ZINC000013763987

>  <smiles>  (533) 
CN(C)c1ccc(C(=C2C=CC(=[N+](C)C)C=C2)c2ccc(N(C)C)cc2)cc1

$$$$

     RDKit          3D

 14 14  0  0  0  0  0  0  0  0999 V2000
   -1.9170    2.8794   -0.2426 C   0  0  0  0  0  0  0  0  0  0  0  0
   -1.1958    1.7666    0.2419 O   0  0  0  0  0  0  0  0  0  0  0  0
   -1.5426    0.4515   -0.0194 C   0  0  0  0  0  0  0  0  0  0  0  0
   -2.8547    0.0352   -0.1896 C   0  0  0  0  0  0  0  0  0  0  0  0
   -3.0942   -1.2807   -0.4881 C   0  0  0  0  0  0  0  0  0  0  0  0
   -2.2403   -2.2119    0.0896 C   0  0  0  0  0  0  0  0  0  0  0  0
   -0.9269   -1.8354    0.2588 C   0  0  0  0  0  0  0  0  0  0  0  0
   -0.5576   -0.4955    0.2344 C   0  0  0  0  0  0  0  0  0  0  0  0
    0.7608   -0.2461   -0.0099 O   0  0  0  0  0  0  0  0  0  0  0  0
    1.1031    0.4998   -1.1403 C   0  0  0  0  0  0  0  0  0  0  0  0
    2.7500    0.5169   -1.1956 C   0  0  2  0  0  0  0  0  0  0  0  0
    2.8340   -0.9876   -0.9973 O   0  0  0  0  0  0  0  0  0  0  0  0
    2.8862    0.8147    0.4229 C   0  0  0  0  0  0  0  0  0  0  0  0
    3.9950    0.0931    0.8309 O   0  0  0  0  0  0  0  0  0  0  0  0
  1  2  1  0
  2  3  1  0
  3  4  2  0
  4  5  1  0
  5  6  2  0
  6  7  1  0
  7  8  2  0
  8  9  1  0
  9 10  1  0
 11 10  1  1
 11 12  1  0
 11 13  1  0
 13 14  1  0
  8  3  1  0
M  END
>  <zinc_id>  (534) 
ZINC000000000353

>  <smiles>  (534) 
COc1ccccc1OC[C@H](O)CO

$$$$

     RDKit          3D

 12 12  0  0  0  0  0  0  0  0999 V2000
    2.6558   -0.7974   -0.6125 C   0  0  0  0  0  0  0  0  0  0  0  0
    3.0570    0.1033    0.2340 N   0  0  0  0  0  0  0  0  0  0  0  0
    1.7872    0.8927    0.6852 C   0  0  1  0  0  0  0  0  0  0  0  0
    1.4293    1.2719   -0.8569 C   0  0  0  0  0  0  0  0  0  0  0  0
    0.8805   -0.5715    0.7626 C   0  0  1  0  0  0  0  0  0  0  0  0
    0.3386   -0.1973    2.1269 O   0  0  0  0  0  0  0  0  0  0  0  0
   -0.3963   -0.0312   -0.0514 C   0  0  0  0  0  0  0  0  0  0  0  0
   -0.7954   -0.8800   -1.0802 C   0  0  0  0  0  0  0  0  0  0  0  0
   -2.1434   -1.2238   -1.0301 C   0  0  0  0  0  0  0  0  0  0  0  0
   -3.0488   -0.3267   -0.4762 C   0  0  0  0  0  0  0  0  0  0  0  0
   -2.5161    0.9132   -0.1389 C   0  0  0  0  0  0  0  0  0  0  0  0
   -1.2484    0.8469    0.4375 C   0  0  0  0  0  0  0  0  0  0  0  0
  1  2  1  0
  3  2  1  6
  3  4  1  0
  3  5  1  0
  5  6  1  1
  5  7  1  0
  7  8  2  0
  8  9  1  0
  9 10  2  0
 10 11  1  0
 11 12  2  0
 12  7  1  0
M  END
>  <zinc_id>  (535) 
ZINC000000020259

>  <smiles>  (535) 
CN[C@@H](C)[C@@H](O)c1ccccc1

$$$$

     RDKit          3D

 28 31  0  0  0  0  0  0  0  0999 V2000
    1.8138   -3.3861   -0.6676 C   0  0  0  0  0  0  0  0  0  0  0  0
    0.8975   -2.6446   -1.3833 C   0  0  0  0  0  0  0  0  0  0  0  0
    0.2491   -1.6260   -0.5994 N   0  0  0  0  0  0  0  0  0  0  0  0
    0.1607   -1.6501    0.8161 C   0  0  0  0  0  0  0  0  0  0  0  0
   -0.2881   -0.1369    1.2026 C   0  0  1  0  0  0  0  0  0  0  0  0
    0.9940    0.5375    0.4483 C   0  0  0  0  0  0  0  0  0  0  0  0
    2.1312    0.2183    1.3590 C   0  0  0  0  0  0  0  0  0  0  0  0
    3.4227    0.3107    0.8267 N   0  0  0  0  0  0  0  0  0  0  0  0
    3.6315   -0.0121   -0.5376 C   0  0  0  0  0  0  0  0  0  0  0  0
    5.0385   -0.5958   -0.6280 C   0  0  0  0  0  0  0  0  0  0  0  0
    5.9043    0.4073   -0.2387 O   0  0  0  0  0  0  0  0  0  0  0  0
    5.7373    0.8366    1.0590 C   0  0  0  0  0  0  0  0  0  0  0  0
    4.3321    1.2290    1.4101 C   0  0  0  0  0  0  0  0  0  0  0  0
   -1.2489   -0.0073   -0.1055 C   0  0  0  0  0  0  0  0  0  0  0  0
   -1.5813    1.4194   -0.1517 C   0  0  0  0  0  0  0  0  0  0  0  0
   -2.3441    1.8931    0.9108 C   0  0  0  0  0  0  0  0  0  0  0  0
   -2.9824    3.1151    0.7373 C   0  0  0  0  0  0  0  0  0  0  0  0
   -2.2007    4.1178    0.1888 C   0  0  0  0  0  0  0  0  0  0  0  0
   -1.2786    3.7116   -0.7668 C   0  0  0  0  0  0  0  0  0  0  0  0
   -0.9305    2.3718   -0.8916 C   0  0  0  0  0  0  0  0  0  0  0  0
   -2.4179   -0.8817    0.1227 C   0  0  0  0  0  0  0  0  0  0  0  0
   -3.6594   -0.3095   -0.1347 C   0  0  0  0  0  0  0  0  0  0  0  0
   -4.7470   -1.0241   -0.5605 C   0  0  0  0  0  0  0  0  0  0  0  0
   -4.6138   -2.3587   -0.8508 C   0  0  0  0  0  0  0  0  0  0  0  0
   -3.3891   -2.9513   -0.7073 C   0  0  0  0  0  0  0  0  0  0  0  0
   -2.3177   -2.2193   -0.2425 C   0  0  0  0  0  0  0  0  0  0  0  0
   -0.3640   -0.4791   -1.1739 C   0  0  0  0  0  0  0  0  0  0  0  0
    0.0509    0.1145   -2.1880 O   0  0  0  0  0  0  0  0  0  0  0  0
  1  2  1  0
  2  3  1  0
  3  4  1  0
  4  5  1  0
  5  6  1  6
  6  7  1  0
  7  8  1  0
  8  9  1  0
  9 10  1  0
 10 11  1  0
 11 12  1  0
 12 13  1  0
  5 14  1  0
 14 15  1  0
 15 16  2  0
 16 17  1  0
 17 18  2  0
 18 19  1  0
 19 20  2  0
 14 21  1  0
 21 22  2  0
 22 23  1  0
 23 24  2  0
 24 25  1  0
 25 26  2  0
 14 27  1  0
 27 28  2  0
 27  3  1  0
 13  8  1  0
 20 15  1  0
 26 21  1  0
M  END
>  <zinc_id>  (536) 
ZINC000019632668

>  <smiles>  (536) 
CCN1C[C@@H](CCN2CCOCC2)C(c2ccccc2)(c2ccccc2)C1=O

$$$$

     RDKit          3D

 21 23  0  0  0  0  0  0  0  0999 V2000
    4.7354   -1.0439    1.0932 C   0  0  0  0  0  0  0  0  0  0  0  0
    3.5512   -1.8321    0.7982 N   0  0  0  0  0  0  0  0  0  0  0  0
    2.6562   -1.2731   -0.1691 C   0  0  0  0  0  0  0  0  0  0  0  0
    2.7351    0.0034   -0.3998 N   0  0  0  0  0  0  0  0  0  0  0  0
    1.6504    0.8989   -0.6729 C   0  0  0  0  0  0  0  0  0  0  0  0
    2.0706    2.2191   -0.5667 C   0  0  0  0  0  0  0  0  0  0  0  0
    1.2094    3.2495   -0.2454 C   0  0  0  0  0  0  0  0  0  0  0  0
   -0.0875    2.8992    0.0887 C   0  0  0  0  0  0  0  0  0  0  0  0
   -0.9954    3.8948    1.2224 Cl  0  0  0  0  0  0  0  0  0  0  0  0
   -0.5643    1.6764   -0.3560 C   0  0  0  0  0  0  0  0  0  0  0  0
    0.2859    0.6452   -0.7335 C   0  0  0  0  0  0  0  0  0  0  0  0
   -0.3140   -0.6844   -0.5670 C   0  0  0  0  0  0  0  0  0  0  0  0
   -1.7234   -0.6599   -0.1557 C   0  0  0  0  0  0  0  0  0  0  0  0
   -2.7111   -0.6266   -1.1304 C   0  0  0  0  0  0  0  0  0  0  0  0
   -4.0220   -0.5259   -0.7291 C   0  0  0  0  0  0  0  0  0  0  0  0
   -4.3875   -0.5473    0.5904 C   0  0  0  0  0  0  0  0  0  0  0  0
   -3.4077   -0.7311    1.5567 C   0  0  0  0  0  0  0  0  0  0  0  0
   -2.0689   -0.7101    1.1845 C   0  0  0  0  0  0  0  0  0  0  0  0
    0.2832   -1.8112   -0.3128 N   0  0  0  0  0  0  0  0  0  0  0  0
   -0.5197   -2.8190    0.1935 O   0  0  0  0  0  0  0  0  0  0  0  0
    1.6239   -2.2220   -0.6891 C   0  0  0  0  0  0  0  0  0  0  0  0
  1  2  1  0
  2  3  1  0
  3  4  2  0
  4  5  1  0
  5  6  2  0
  6  7  1  0
  7  8  2  0
  8  9  1  0
  8 10  1  0
 10 11  2  0
 11 12  1  0
 12 13  1  0
 13 14  2  0
 14 15  1  0
 15 16  2  0
 16 17  1  0
 17 18  2  0
 12 19  2  0
 19 20  1  0
 19 21  1  0
 21  3  1  0
 11  5  1  0
 18 13  1  0
M  CHG  2  19   1  20  -1
M  END
>  <zinc_id>  (537) 
ZINC000019632917

>  <smiles>  (537) 
CNC1=Nc2ccc(Cl)cc2C(c2ccccc2)=[N+]([O-])C1

$$$$

     RDKit          3D

 23 26  0  0  0  0  0  0  0  0999 V2000
    5.6236   -0.3245   -0.5721 C   0  0  0  0  0  0  0  0  0  0  0  0
    4.3924   -1.0163   -0.2918 N   0  0  0  0  0  0  0  0  0  0  0  0
    4.0327   -1.0194    1.0992 C   0  0  0  0  0  0  0  0  0  0  0  0
    2.8579   -0.1329    1.4213 C   0  0  0  0  0  0  0  0  0  0  0  0
    1.7500   -0.5766    0.6216 N   0  0  0  0  0  0  0  0  0  0  0  0
    0.4135   -0.0802    0.7666 C   0  0  0  0  0  0  0  0  0  0  0  0
   -0.5139   -0.9913    0.8152 N   0  0  0  0  0  0  0  0  0  0  0  0
   -1.8541   -0.9855    0.3077 C   0  0  0  0  0  0  0  0  0  0  0  0
   -2.5728   -2.1206    0.6280 C   0  0  0  0  0  0  0  0  0  0  0  0
   -3.8760   -2.2546    0.1683 C   0  0  0  0  0  0  0  0  0  0  0  0
   -4.9931   -3.2883    1.0457 Cl  0  0  0  0  0  0  0  0  0  0  0  0
   -4.2267   -1.5564   -0.9602 C   0  0  0  0  0  0  0  0  0  0  0  0
   -3.3644   -0.5948   -1.4742 C   0  0  0  0  0  0  0  0  0  0  0  0
   -2.4402   -0.0815   -0.5712 C   0  0  0  0  0  0  0  0  0  0  0  0
   -2.0248    1.2518   -0.8906 N   0  0  0  0  0  0  0  0  0  0  0  0
   -0.8792    1.8904   -0.3140 C   0  0  0  0  0  0  0  0  0  0  0  0
   -0.9351    3.2675   -0.4759 C   0  0  0  0  0  0  0  0  0  0  0  0
    0.2715    3.9326   -0.4757 C   0  0  0  0  0  0  0  0  0  0  0  0
    1.4125    3.3049   -0.0266 C   0  0  0  0  0  0  0  0  0  0  0  0
    1.3878    1.9882    0.3752 C   0  0  0  0  0  0  0  0  0  0  0  0
    0.1868    1.2945    0.3406 C   0  0  0  0  0  0  0  0  0  0  0  0
    2.0377   -1.2685   -0.6314 C   0  0  0  0  0  0  0  0  0  0  0  0
    3.3140   -0.6385   -1.1728 C   0  0  0  0  0  0  0  0  0  0  0  0
  1  2  1  0
  2  3  1  0
  3  4  1  0
  4  5  1  0
  5  6  1  0
  6  7  2  0
  7  8  1  0
  8  9  2  0
  9 10  1  0
 10 11  1  0
 10 12  2  0
 12 13  1  0
 13 14  2  0
 14 15  1  0
 15 16  1  0
 16 17  2  0
 17 18  1  0
 18 19  2  0
 19 20  1  0
 20 21  2  0
  5 22  1  0
 22 23  1  0
 23  2  1  0
 21  6  1  0
 14  8  1  0
 21 16  1  0
M  END
>  <zinc_id>  (538) 
ZINC000019796155

>  <smiles>  (538) 
CN1CCN(C2=Nc3cc(Cl)ccc3Nc3ccccc32)CC1

$$$$

     RDKit          3D

 18 20  0  0  0  0  0  0  0  0999 V2000
    3.2409    0.4797    0.5321 C   0  0  0  0  0  0  0  0  0  0  0  0
    3.2231   -0.9615    0.0494 C   0  0  0  0  0  0  0  0  0  0  0  0
    3.1776   -1.9308    1.1979 C   0  0  0  0  0  0  0  0  0  0  0  0
    2.0875   -1.1800   -0.9377 C   0  0  0  0  0  0  0  0  0  0  0  0
    1.3305    0.0421   -1.0137 N   0  0  0  0  0  0  0  0  0  0  0  0
    1.6010    1.2308   -1.5553 C   0  0  0  0  0  0  0  0  0  0  0  0
    0.8208    2.1889   -0.9967 N   0  0  0  0  0  0  0  0  0  0  0  0
    0.0379    1.5862   -0.0769 C   0  0  0  0  0  0  0  0  0  0  0  0
    0.2206    0.2220   -0.2543 C   0  0  0  0  0  0  0  0  0  0  0  0
   -0.8052   -0.6256    0.1445 C   0  0  0  0  0  0  0  0  0  0  0  0
   -0.7425   -1.9616   -0.2309 C   0  0  0  0  0  0  0  0  0  0  0  0
   -1.9258   -2.6703   -0.3988 C   0  0  0  0  0  0  0  0  0  0  0  0
   -3.1502   -2.0293   -0.3353 C   0  0  0  0  0  0  0  0  0  0  0  0
   -3.1984   -0.7616    0.2341 C   0  0  0  0  0  0  0  0  0  0  0  0
   -2.0206   -0.1064    0.5728 C   0  0  0  0  0  0  0  0  0  0  0  0
   -2.0324    1.1737    1.0127 N   0  0  0  0  0  0  0  0  0  0  0  0
   -0.9897    2.0009    0.7606 C   0  0  0  0  0  0  0  0  0  0  0  0
   -0.8750    3.3026    1.2957 N   0  0  0  0  0  0  0  0  0  0  0  0
  1  2  1  0
  2  3  1  0
  2  4  1  0
  4  5  1  0
  5  6  1  0
  6  7  2  0
  7  8  1  0
  8  9  2  0
  9 10  1  0
 10 11  2  0
 11 12  1  0
 12 13  2  0
 13 14  1  0
 14 15  2  0
 15 16  1  0
 16 17  2  0
 17 18  1  0
  9  5  1  0
 15 10  1  0
 17  8  1  0
M  END
>  <zinc_id>  (539) 
ZINC000019632912

>  <smiles>  (539) 
CC(C)Cn1cnc2c(N)nc3ccccc3c21

$$$$

     RDKit          3D

 28 31  0  0  0  0  0  0  0  0999 V2000
    3.3502   -1.8599    0.6440 O   0  0  0  0  0  0  0  0  0  0  0  0
    3.3981   -0.7100    0.1134 C   0  0  0  0  0  0  0  0  0  0  0  0
    2.5345    0.3273    0.7598 C   0  0  0  0  0  0  0  0  0  0  0  0
    1.7639    1.0049   -0.3596 C   0  0  0  0  0  0  0  0  0  0  0  0
    0.9818   -0.0716   -1.0739 C   0  0  0  0  0  0  0  0  0  0  0  0
    0.4764   -1.0144   -0.1015 N   0  0  0  0  0  0  0  0  0  0  0  0
   -0.4185   -1.9802   -0.6825 C   0  0  0  0  0  0  0  0  0  0  0  0
   -1.7315   -2.0435    0.0253 C   0  0  0  0  0  0  0  0  0  0  0  0
   -2.3417   -0.9499    0.4466 C   0  0  0  0  0  0  0  0  0  0  0  0
   -3.7474   -0.7480    0.3408 N   0  0  0  0  0  0  0  0  0  0  0  0
   -4.6619   -1.7135    0.1218 C   0  0  0  0  0  0  0  0  0  0  0  0
   -4.6413   -2.8378    0.6737 O   0  0  0  0  0  0  0  0  0  0  0  0
   -5.7250   -1.1283   -0.4782 N   0  0  0  0  0  0  0  0  0  0  0  0
   -5.5040    0.1958   -0.6115 C   0  0  0  0  0  0  0  0  0  0  0  0
   -6.2156    1.2428   -1.1808 C   0  0  0  0  0  0  0  0  0  0  0  0
   -5.9257    2.5071   -0.6842 C   0  0  0  0  0  0  0  0  0  0  0  0
   -4.8897    2.7221    0.2152 C   0  0  0  0  0  0  0  0  0  0  0  0
   -3.9201    1.7442    0.2743 C   0  0  0  0  0  0  0  0  0  0  0  0
   -4.3231    0.4313    0.0800 C   0  0  0  0  0  0  0  0  0  0  0  0
   -1.4567    0.1980    0.8121 C   0  0  0  0  0  0  0  0  0  0  0  0
   -0.0848   -0.3835    1.0653 C   0  0  0  0  0  0  0  0  0  0  0  0
    4.7223   -0.3031   -0.3751 C   0  0  0  0  0  0  0  0  0  0  0  0
    4.8980    0.8445   -1.1389 C   0  0  0  0  0  0  0  0  0  0  0  0
    6.0843    1.5657   -1.0699 C   0  0  0  0  0  0  0  0  0  0  0  0
    6.9626    1.3417   -0.0164 C   0  0  0  0  0  0  0  0  0  0  0  0
    7.5786    2.3652    0.6417 F   0  0  0  0  0  0  0  0  0  0  0  0
    6.9575    0.0446    0.4829 C   0  0  0  0  0  0  0  0  0  0  0  0
    5.8788   -0.7916    0.2218 C   0  0  0  0  0  0  0  0  0  0  0  0
  1  2  2  0
  2  3  1  0
  3  4  1  0
  4  5  1  0
  5  6  1  0
  6  7  1  0
  7  8  1  0
  8  9  2  0
  9 10  1  0
 10 11  1  0
 11 12  2  0
 11 13  1  0
 13 14  1  0
 14 15  2  0
 15 16  1  0
 16 17  2  0
 17 18  1  0
 18 19  2  0
  9 20  1  0
 20 21  1  0
  2 22  1  0
 22 23  2  0
 23 24  1  0
 24 25  2  0
 25 26  1  0
 25 27  1  0
 27 28  2  0
 21  6  1  0
 28 22  1  0
 19 10  1  0
 19 14  1  0
M  END
>  <zinc_id>  (540) 
ZINC000019796080

>  <smiles>  (540) 
O=C(CCCN1CC=C(n2c(=O)[nH]c3ccccc32)CC1)c1ccc(F)cc1

$$$$

     RDKit          3D

 18 19  0  0  0  0  0  0  0  0999 V2000
    6.5445    1.2045    1.0167 C   0  0  0  0  0  0  0  0  0  0  0  0
    5.1272    1.0336    0.4974 C   0  0  0  0  0  0  0  0  0  0  0  0
    5.1374    0.2853   -0.8302 C   0  0  0  0  0  0  0  0  0  0  0  0
    3.7815   -0.9327   -0.7627 S   0  0  0  0  0  0  0  0  0  0  0  0
    2.2579    0.0167   -0.7509 C   0  0  0  0  0  0  0  0  0  0  0  0
    1.9322    0.8557   -1.8074 C   0  0  0  0  0  0  0  0  0  0  0  0
    0.6193    0.9285   -2.2567 C   0  0  0  0  0  0  0  0  0  0  0  0
   -0.4044    0.3475   -1.5291 C   0  0  0  0  0  0  0  0  0  0  0  0
   -1.5542   -0.2796   -1.8801 N   0  0  0  0  0  0  0  0  0  0  0  0
   -2.0753   -0.8227   -0.7592 C   0  0  0  0  0  0  0  0  0  0  0  0
   -3.2494   -1.3474   -0.5761 N   0  0  0  0  0  0  0  0  0  0  0  0
   -4.1040   -0.8972    0.4832 C   0  0  0  0  0  0  0  0  0  0  0  0
   -3.5989   -0.8414    1.6361 O   0  0  0  0  0  0  0  0  0  0  0  0
   -4.9927    0.1340    0.1679 O   0  0  0  0  0  0  0  0  0  0  0  0
   -5.2835    1.1923    1.0771 C   0  0  0  0  0  0  0  0  0  0  0  0
   -1.2792   -0.4979    0.2803 N   0  0  0  0  0  0  0  0  0  0  0  0
   -0.0910   -0.1335   -0.2628 C   0  0  0  0  0  0  0  0  0  0  0  0
    1.2327   -0.2456    0.1484 C   0  0  0  0  0  0  0  0  0  0  0  0
  1  2  1  0
  2  3  1  0
  3  4  1  0
  4  5  1  0
  5  6  2  0
  6  7  1  0
  7  8  2  0
  8  9  1  0
  9 10  1  0
 10 11  2  0
 11 12  1  0
 12 13  2  0
 12 14  1  0
 14 15  1  0
 10 16  1  0
 16 17  1  0
 17 18  2  0
 18  5  1  0
 17  8  1  0
M  END
>  <zinc_id>  (541) 
ZINC000017146904

>  <smiles>  (541) 
CCCSc1ccc2[nH]/c(=N/C(=O)OC)[nH]c2c1

$$$$

     RDKit          3D

 16 17  0  0  0  0  0  0  0  0999 V2000
    3.7014   -0.4956    0.3043 O   0  0  0  0  0  0  0  0  0  0  0  0
    3.6801   -0.3933    0.0194 N   0  0  0  0  0  0  0  0  0  0  0  0
    4.7825    0.2919   -0.4791 O   0  0  0  0  0  0  0  0  0  0  0  0
    2.5381   -0.6426   -0.7237 O   0  0  0  0  0  0  0  0  0  0  0  0
    1.6153    0.5418   -0.9960 C   0  0  2  0  0  0  0  0  0  0  0  0
    1.2963    0.8098    0.5737 C   0  0  0  0  0  0  0  0  0  0  0  0
    0.1749    1.3759    0.4399 O   0  0  0  0  0  0  0  0  0  0  0  0
   -0.7770    0.7497   -0.5021 C   0  0  2  0  0  0  0  0  0  0  0  0
   -1.4464   -0.2118    0.7454 C   0  0  1  0  0  0  0  0  0  0  0  0
   -2.7765   -0.3081   -0.0033 O   0  0  0  0  0  0  0  0  0  0  0  0
   -3.8049    0.2707    0.6915 N   0  0  0  0  0  0  0  0  0  0  0  0
   -4.7978   -0.3887    1.0464 O   0  0  0  0  0  0  0  0  0  0  0  0
   -3.9224    1.6346    0.5755 O   0  0  0  0  0  0  0  0  0  0  0  0
   -0.9118   -1.6187    0.1212 C   0  0  0  0  0  0  0  0  0  0  0  0
    0.4057   -1.1405    0.2582 O   0  0  0  0  0  0  0  0  0  0  0  0
    0.2427   -0.4750   -1.0747 C   0  0  2  0  0  0  0  0  0  0  0  0
  1  2  2  0
  2  3  1  0
  2  4  1  0
  5  4  1  1
  5  6  1  0
  6  7  1  0
  8  7  1  1
  8  9  1  0
  9 10  1  6
 10 11  1  0
 11 12  2  0
 11 13  1  0
  9 14  1  0
 14 15  1  0
 16 15  1  1
 16  5  1  0
 16  8  1  0
M  CHG  4   2   1   3  -1  11   1  13  -1
M  END
>  <zinc_id>  (542) 
ZINC000018089317

>  <smiles>  (542) 
O=[N+]([O-])O[C@H]1CO[C@H]2[C@@H]1OC[C@H]2O[N+](=O)[O-]

$$$$

     RDKit          3D

 13 13  0  0  0  0  0  0  0  0999 V2000
    3.5129   -0.2950   -0.0872 C   0  0  0  0  0  0  0  0  0  0  0  0
    2.5030    0.7587   -0.0464 N   0  0  0  0  0  0  0  0  0  0  0  0
    2.9021    1.9705    0.6689 C   0  0  0  0  0  0  0  0  0  0  0  0
    1.7199    0.9901   -1.1944 N   0  0  0  0  0  0  0  0  0  0  0  0
    0.4612    0.8763   -1.0287 N   0  0  0  0  0  0  0  0  0  0  0  0
   -0.0272   -0.2592   -0.3033 C   0  0  0  0  0  0  0  0  0  0  0  0
    0.5307   -1.4837   -0.4532 N   0  0  0  0  0  0  0  0  0  0  0  0
   -0.3506   -2.4501   -0.1893 C   0  0  0  0  0  0  0  0  0  0  0  0
   -1.5676   -1.8694   -0.2356 N   0  0  0  0  0  0  0  0  0  0  0  0
   -1.3700   -0.5373   -0.0749 C   0  0  0  0  0  0  0  0  0  0  0  0
   -2.4858    0.4140   -0.1506 C   0  0  0  0  0  0  0  0  0  0  0  0
   -2.9623    1.1343    0.9741 N   0  0  0  0  0  0  0  0  0  0  0  0
   -2.8662    0.7508   -1.3128 O   0  0  0  0  0  0  0  0  0  0  0  0
  1  2  1  0
  2  3  1  0
  2  4  1  0
  4  5  2  0
  5  6  1  0
  6  7  1  0
  7  8  1  0
  8  9  2  0
  9 10  1  0
 10 11  1  0
 11 12  1  0
 11 13  2  0
 10  6  2  0
M  END
>  <zinc_id>  (543) 
ZINC000018099446

>  <smiles>  (543) 
CN(C)/N=N\c1[nH]cnc1C(N)=O

$$$$

     RDKit          3D

 21 24  0  0  0  0  0  0  0  0999 V2000
    3.7477   -0.2644    1.2699 C   0  0  0  0  0  0  0  0  0  0  0  0
    2.4483    0.0653    0.9469 O   0  0  0  0  0  0  0  0  0  0  0  0
    2.5055   -0.5660   -0.4428 C   0  0  1  0  0  0  0  0  0  0  0  0
    1.1992   -1.3330   -0.4187 O   0  0  0  0  0  0  0  0  0  0  0  0
    0.3179   -0.6111    0.5902 C   0  0  2  0  0  0  0  0  0  0  0  0
   -0.6627   -1.7800    0.6135 O   0  0  0  0  0  0  0  0  0  0  0  0
   -1.4605   -1.8758   -0.3989 C   0  0  1  0  0  0  0  0  0  0  0  0
   -1.9643   -3.3241   -0.3680 C   0  0  0  0  0  0  0  0  0  0  0  0
   -2.8302   -1.2012   -0.2619 C   0  0  0  0  0  0  0  0  0  0  0  0
   -2.5699   -0.0794    0.5300 C   0  0  0  0  0  0  0  0  0  0  0  0
   -1.6067    1.0397   -0.1317 C   0  0  1  0  0  0  0  0  0  0  0  0
   -1.0648    1.3177    1.4529 C   0  0  2  0  0  0  0  0  0  0  0  0
   -2.3861    2.1810    1.8065 C   0  0  0  0  0  0  0  0  0  0  0  0
   -0.2297    2.6194    0.9884 C   0  0  0  0  0  0  0  0  0  0  0  0
    0.9836    1.7144    0.7214 C   0  0  0  0  0  0  0  0  0  0  0  0
    0.6020    1.4382   -0.8458 C   0  0  1  0  0  0  0  0  0  0  0  0
    2.0315    0.7650   -1.4005 C   0  0  1  0  0  0  0  0  0  0  0  0
    2.9517    1.8297   -0.5676 C   0  0  0  0  0  0  0  0  0  0  0  0
   -0.3720    0.1486   -0.6612 C   0  0  1  0  0  0  0  0  0  0  0  0
   -0.5440   -0.4682   -1.7428 O   0  0  0  0  0  0  0  0  0  0  0  0
   -1.0965   -1.6158   -1.6799 O   0  0  0  0  0  0  0  0  0  0  0  0
  1  2  1  0
  3  2  1  1
  3  4  1  0
  5  4  1  6
  5  6  1  0
  6  7  1  0
  7  8  1  6
  7  9  1  0
  9 10  1  0
 11 10  1  1
 11 12  1  0
 12 13  1  1
 12 14  1  0
 14 15  1  0
 16 15  1  1
 16 17  1  0
 17 18  1  1
 16 19  1  0
 19 20  1  6
 20 21  1  0
 17  3  1  0
 19  5  1  0
 21  7  1  0
 19 11  1  0
M  END
>  <zinc_id>  (544) 
ZINC000014263142

>  <smiles>  (544) 
CO[C@H]1O[C@@H]2O[C@@]3(C)CC[C@H]4[C@H](C)CC[C@@H]([C@H]1C)[C@]42OO3

$$$$

     RDKit          3D

 17 17  0  0  0  0  0  0  0  0999 V2000
   -5.0789    0.4239    1.2334 C   0  0  0  0  0  0  0  0  0  0  0  0
   -3.7087   -0.0590    1.3883 N   0  0  0  0  0  0  0  0  0  0  0  0
   -3.0921   -0.4712    0.1606 C   0  0  0  0  0  0  0  0  0  0  0  0
   -3.1156    0.4271   -0.7798 N   0  0  0  0  0  0  0  0  0  0  0  0
   -3.9911    1.5297   -0.6546 C   0  0  0  0  0  0  0  0  0  0  0  0
   -4.1313    2.6835   -0.7790 N   0  0  0  0  0  0  0  0  0  0  0  0
   -2.0995   -1.4715    0.0797 N   0  0  0  0  0  0  0  0  0  0  0  0
   -0.8418   -1.2986   -0.6233 C   0  0  0  0  0  0  0  0  0  0  0  0
    0.2466   -1.2843    0.4265 C   0  0  0  0  0  0  0  0  0  0  0  0
    1.5134   -2.5369    0.0439 S   0  0  0  0  0  0  0  0  0  0  0  0
    3.1705   -1.8183    0.2682 C   0  0  0  0  0  0  0  0  0  0  0  0
    3.1295   -0.3252    0.2281 C   0  0  0  0  0  0  0  0  0  0  0  0
    2.9834    0.4709    1.2977 N   0  0  0  0  0  0  0  0  0  0  0  0
    3.5908    1.6439    1.0005 C   0  0  0  0  0  0  0  0  0  0  0  0
    3.9121    1.6603   -0.3080 N   0  0  0  0  0  0  0  0  0  0  0  0
    3.5371    0.4665   -0.8270 C   0  0  0  0  0  0  0  0  0  0  0  0
    3.9755   -0.0406   -2.1552 C   0  0  0  0  0  0  0  0  0  0  0  0
  1  2  1  0
  2  3  1  0
  3  4  2  0
  4  5  1  0
  5  6  3  0
  3  7  1  0
  7  8  1  0
  8  9  1  0
  9 10  1  0
 10 11  1  0
 11 12  1  0
 12 13  1  0
 13 14  2  0
 14 15  1  0
 15 16  1  0
 16 17  1  0
 16 12  2  0
M  END
>  <zinc_id>  (545) 
ZINC000018115268

>  <smiles>  (545) 
CN/C(=N\C#N)NCCSCc1nc[nH]c1C

$$$$

     RDKit          3D

 16 18  0  0  0  0  0  0  0  0999 V2000
    0.2811    3.0725   -0.8097 Cl  0  0  0  0  0  0  0  0  0  0  0  0
   -0.7004    1.7832   -0.1159 C   0  0  0  0  0  0  0  0  0  0  0  0
   -2.0233    2.0900    0.1231 C   0  0  0  0  0  0  0  0  0  0  0  0
   -2.9561    1.0950    0.3136 C   0  0  0  0  0  0  0  0  0  0  0  0
   -2.5320   -0.2299    0.3110 C   0  0  0  0  0  0  0  0  0  0  0  0
   -3.1092   -1.2528    0.9914 N   0  0  0  0  0  0  0  0  0  0  0  0
   -2.4418   -2.5901    0.1889 S   0  0  0  0  0  0  0  0  0  0  0  0
   -1.2142   -1.7771   -0.6519 N   0  0  0  0  0  0  0  0  0  0  0  0
   -1.2303   -0.5673   -0.0355 C   0  0  0  0  0  0  0  0  0  0  0  0
   -0.2931    0.4540   -0.1599 C   0  0  0  0  0  0  0  0  0  0  0  0
    0.9117    0.2152   -0.8981 N   0  0  0  0  0  0  0  0  0  0  0  0
    1.9716   -0.2776   -0.3668 C   0  0  0  0  0  0  0  0  0  0  0  0
    2.2018   -0.8573    0.9000 N   0  0  0  0  0  0  0  0  0  0  0  0
    3.6019   -0.7219    1.2205 C   0  0  0  0  0  0  0  0  0  0  0  0
    4.2890   -0.1632    0.0014 C   0  0  0  0  0  0  0  0  0  0  0  0
    3.2435   -0.2726   -1.0122 N   0  0  0  0  0  0  0  0  0  0  0  0
  1  2  1  0
  2  3  1  0
  3  4  2  0
  4  5  1  0
  5  6  2  0
  6  7  1  0
  7  8  1  0
  8  9  2  0
  9 10  1  0
 10 11  1  0
 11 12  2  3
 12 13  1  0
 13 14  1  0
 14 15  1  0
 15 16  1  0
 10  2  2  0
 16 12  1  0
  9  5  1  0
M  END
>  <zinc_id>  (546) 
ZINC000019702309

>  <smiles>  (546) 
Clc1ccc2nsnc2c1N=C1NCCN1

$$$$

     RDKit          3D

 23 26  0  0  0  0  0  0  0  0999 V2000
    4.5622   -1.9589   -0.4447 C   0  0  0  0  0  0  0  0  0  0  0  0
    4.1822   -0.6807    0.1169 N   0  0  0  0  0  0  0  0  0  0  0  0
    4.0431    0.3526   -0.8749 C   0  0  0  0  0  0  0  0  0  0  0  0
    2.6996    0.2746   -1.5924 C   0  0  0  0  0  0  0  0  0  0  0  0
    1.7010    0.4643   -0.5512 N   0  0  0  0  0  0  0  0  0  0  0  0
    0.3394    0.0858   -0.7049 C   0  0  0  0  0  0  0  0  0  0  0  0
    0.1605   -1.1764   -0.4719 N   0  0  0  0  0  0  0  0  0  0  0  0
   -1.0483   -1.8689   -0.1977 C   0  0  0  0  0  0  0  0  0  0  0  0
   -0.8581   -3.1303    0.3291 C   0  0  0  0  0  0  0  0  0  0  0  0
   -1.9910   -3.8429    0.7010 C   0  0  0  0  0  0  0  0  0  0  0  0
   -3.2187   -3.4450    0.1888 C   0  0  0  0  0  0  0  0  0  0  0  0
   -3.4085   -2.1589   -0.2968 C   0  0  0  0  0  0  0  0  0  0  0  0
   -2.3144   -1.3353   -0.4053 C   0  0  0  0  0  0  0  0  0  0  0  0
   -2.7336   -0.0005   -0.3684 O   0  0  0  0  0  0  0  0  0  0  0  0
   -1.9363    1.1130   -0.1428 C   0  0  0  0  0  0  0  0  0  0  0  0
   -2.6349    2.2615    0.1501 C   0  0  0  0  0  0  0  0  0  0  0  0
   -1.9092    3.3744    0.5188 C   0  0  0  0  0  0  0  0  0  0  0  0
   -0.5607    3.5110    0.2700 C   0  0  0  0  0  0  0  0  0  0  0  0
    0.1728    5.0426   -0.1601 Cl  0  0  0  0  0  0  0  0  0  0  0  0
    0.1063    2.3289   -0.0280 C   0  0  0  0  0  0  0  0  0  0  0  0
   -0.5775    1.1902   -0.4026 C   0  0  0  0  0  0  0  0  0  0  0  0
    2.2084    0.4422    0.8183 C   0  0  0  0  0  0  0  0  0  0  0  0
    3.0155   -0.8432    0.9492 C   0  0  0  0  0  0  0  0  0  0  0  0
  1  2  1  0
  2  3  1  0
  3  4  1  0
  4  5  1  0
  5  6  1  0
  6  7  2  0
  7  8  1  0
  8  9  2  0
  9 10  1  0
 10 11  2  0
 11 12  1  0
 12 13  2  0
 13 14  1  0
 14 15  1  0
 15 16  2  0
 16 17  1  0
 17 18  2  0
 18 19  1  0
 18 20  1  0
 20 21  2  0
  5 22  1  0
 22 23  1  0
 23  2  1  0
 21  6  1  0
 13  8  1  0
 21 15  1  0
M  END
>  <zinc_id>  (547) 
ZINC000019796158

>  <smiles>  (547) 
CN1CCN(C2=Nc3ccccc3Oc3ccc(Cl)cc32)CC1

$$$$

     RDKit          3D

 32 34  0  0  0  0  0  0  0  0999 V2000
    8.3849    0.2452    1.5964 C   0  0  0  0  0  0  0  0  0  0  0  0
    7.2504    0.9551    0.9615 C   0  0  0  0  0  0  0  0  0  0  0  0
    7.4011    1.6813   -0.1709 N   0  0  0  0  0  0  0  0  0  0  0  0
    6.1857    1.9820   -0.5610 N   0  0  0  0  0  0  0  0  0  0  0  0
    5.2718    1.5558    0.3314 C   0  0  0  0  0  0  0  0  0  0  0  0
    3.8530    1.4209   -0.0112 C   0  0  0  0  0  0  0  0  0  0  0  0
    3.2975    2.3682   -0.6381 O   0  0  0  0  0  0  0  0  0  0  0  0
    3.1929    0.1653   -0.0321 N   0  0  0  0  0  0  0  0  0  0  0  0
    2.2773   -0.2371   -1.0839 C   0  0  0  0  0  0  0  0  0  0  0  0
    1.7493    0.9638   -1.8418 C   0  0  0  0  0  0  0  0  0  0  0  0
    3.0326   -1.1929   -1.9899 C   0  0  0  0  0  0  0  0  0  0  0  0
    1.1669   -0.9828   -0.4147 C   0  0  0  0  0  0  0  0  0  0  0  0
    0.1923   -0.2678    0.1984 N   0  0  0  0  0  0  0  0  0  0  0  0
   -0.9116   -0.8825    0.6891 C   0  0  0  0  0  0  0  0  0  0  0  0
   -2.2325   -0.2627    0.5546 C   0  0  0  0  0  0  0  0  0  0  0  0
   -2.2930    1.0856    0.2365 O   0  0  0  0  0  0  0  0  0  0  0  0
   -3.3160   -0.9421    0.3869 N   0  0  0  0  0  0  0  0  0  0  0  0
   -4.3075   -0.6200   -0.6067 C   0  0  0  0  0  0  0  0  0  0  0  0
   -5.1103    0.5848   -0.2275 C   0  0  0  0  0  0  0  0  0  0  0  0
   -5.8043    1.2881   -1.1998 C   0  0  0  0  0  0  0  0  0  0  0  0
   -7.1226    1.6905   -1.0226 C   0  0  0  0  0  0  0  0  0  0  0  0
   -7.6049    1.7883    0.2582 C   0  0  0  0  0  0  0  0  0  0  0  0
   -8.8588    2.2460    0.4274 F   0  0  0  0  0  0  0  0  0  0  0  0
   -6.7948    1.3746    1.3081 C   0  0  0  0  0  0  0  0  0  0  0  0
   -5.5626    0.7821    1.0722 C   0  0  0  0  0  0  0  0  0  0  0  0
   -0.7890   -2.2535    0.8790 C   0  0  0  0  0  0  0  0  0  0  0  0
   -1.8068   -2.9051    1.5640 O   0  0  0  0  0  0  0  0  0  0  0  0
    0.2690   -2.9659    0.3293 C   0  0  0  0  0  0  0  0  0  0  0  0
    0.2128   -4.2303    0.2569 O   0  0  0  0  0  0  0  0  0  0  0  0
    1.1109   -2.3325   -0.5200 N   0  0  0  0  0  0  0  0  0  0  0  0
    1.7058   -2.9920   -1.6690 C   0  0  0  0  0  0  0  0  0  0  0  0
    5.9604    0.8896    1.2404 O   0  0  0  0  0  0  0  0  0  0  0  0
  1  2  1  0
  2  3  2  0
  3  4  1  0
  4  5  2  0
  5  6  1  0
  6  7  2  0
  6  8  1  0
  8  9  1  0
  9 10  1  0
  9 11  1  0
  9 12  1  0
 12 13  2  0
 13 14  1  0
 14 15  1  0
 15 16  1  0
 15 17  2  0
 17 18  1  0
 18 19  1  0
 19 20  2  0
 20 21  1  0
 21 22  2  0
 22 23  1  0
 22 24  1  0
 24 25  2  0
 14 26  2  0
 26 27  1  0
 26 28  1  0
 28 29  2  0
 28 30  1  0
 30 31  1  0
  5 32  1  0
 32  2  1  0
 30 12  1  0
 25 19  1  0
M  END
>  <zinc_id>  (548) 
ZINC000013831130

>  <smiles>  (548) 
Cc1nnc(C(=O)NC(C)(C)c2nc(/C(O)=N/Cc3ccc(F)cc3)c(O)c(=O)n2C)o1

$$$$

     RDKit          3D

 37 39  0  0  0  0  0  0  0  0999 V2000
    6.5335    2.5878   -0.8365 C   0  0  0  0  0  0  0  0  0  0  0  0
    5.8858    3.1036    0.0965 C   0  0  0  0  0  0  0  0  0  0  0  0
    6.6255    3.0909    1.4297 C   0  0  0  0  0  0  0  0  0  0  0  0
    5.5925    4.5655   -0.2073 C   0  0  0  0  0  0  0  0  0  0  0  0
    4.6519    2.3586    0.3198 N   0  0  0  0  0  0  0  0  0  0  0  0
    4.5312    1.0231   -0.1586 C   0  0  0  0  0  0  0  0  0  0  0  0
    5.4417    0.5947   -0.8976 O   0  0  0  0  0  0  0  0  0  0  0  0
    3.4264    0.2370    0.1952 N   0  0  0  0  0  0  0  0  0  0  0  0
    3.0200   -0.8989   -0.8219 C   0  0  2  0  0  0  0  0  0  0  0  0
    1.4548   -0.5894   -0.5860 C   0  0  0  0  0  0  0  0  0  0  0  0
    1.2502    0.2377   -1.5379 O   0  0  0  0  0  0  0  0  0  0  0  0
    0.5662   -1.6426   -0.4465 N   0  0  0  0  0  0  0  0  0  0  0  0
    0.2895   -2.6097   -1.5221 C   0  0  0  0  0  0  0  0  0  0  0  0
   -0.4330   -3.7351   -0.5669 C   0  0  1  0  0  0  0  0  0  0  0  0
   -1.3964   -2.6396    0.2880 C   0  0  1  0  0  0  0  0  0  0  0  0
   -0.9415   -1.2879   -0.6472 C   0  0  1  0  0  0  0  0  0  0  0  0
   -1.1088   -0.2914    0.5984 C   0  0  0  0  0  0  0  0  0  0  0  0
   -0.7247    0.8936    0.3603 O   0  0  0  0  0  0  0  0  0  0  0  0
   -2.3335   -0.2635    1.2832 N   0  0  0  0  0  0  0  0  0  0  0  0
   -3.5641    0.4372    0.5944 C   0  0  2  0  0  0  0  0  0  0  0  0
   -3.2908    1.8979    1.2925 C   0  0  0  0  0  0  0  0  0  0  0  0
   -3.0613    2.6961    0.0840 C   0  0  0  0  0  0  0  0  0  0  0  0
   -3.9713    2.5767   -1.0857 C   0  0  0  0  0  0  0  0  0  0  0  0
   -3.4672    3.9725   -1.4638 C   0  0  0  0  0  0  0  0  0  0  0  0
   -3.1613    4.1515    0.0291 C   0  0  0  0  0  0  0  0  0  0  0  0
   -4.5886   -0.0008    1.7619 C   0  0  0  0  0  0  0  0  0  0  0  0
   -4.4592   -1.1915    2.1813 O   0  0  0  0  0  0  0  0  0  0  0  0
   -5.9091    0.2493    1.1609 C   0  0  0  0  0  0  0  0  0  0  0  0
   -6.2708   -0.6052    0.0747 N   0  0  0  0  0  0  0  0  0  0  0  0
   -6.7220    1.0879    1.5549 O   0  0  0  0  0  0  0  0  0  0  0  0
   -2.0506   -3.4986   -1.0181 C   0  0  0  0  0  0  0  0  0  0  0  0
   -2.9162   -4.5332   -0.3364 C   0  0  0  0  0  0  0  0  0  0  0  0
   -2.3333   -2.8515   -2.2198 C   0  0  0  0  0  0  0  0  0  0  0  0
    3.2082   -2.0555    0.3232 C   0  0  0  0  0  0  0  0  0  0  0  0
    3.2809   -3.3669   -0.3701 C   0  0  0  0  0  0  0  0  0  0  0  0
    4.6329   -1.8327    0.8418 C   0  0  0  0  0  0  0  0  0  0  0  0
    2.3127   -1.8674    1.4349 C   0  0  0  0  0  0  0  0  0  0  0  0
  1  2  1  0
  2  3  1  0
  2  4  1  0
  2  5  1  0
  5  6  1  0
  6  7  2  0
  6  8  1  0
  9  8  1  1
  9 10  1  0
 10 11  2  0
 10 12  1  0
 12 13  1  0
 14 13  1  6
 14 15  1  0
 15 16  1  0
 16 17  1  1
 17 18  2  0
 17 19  1  0
 20 19  1  1
 20 21  1  0
 21 22  1  0
 22 23  1  0
 23 24  1  0
 24 25  1  0
 20 26  1  0
 26 27  2  0
 26 28  1  0
 28 29  1  0
 28 30  2  0
 15 31  1  6
 31 32  1  0
 31 33  1  0
  9 34  1  0
 34 35  1  0
 34 36  1  0
 34 37  1  0
 16 12  1  0
 25 22  1  0
 31 14  1  0
M  END
>  <zinc_id>  (549) 
ZINC000014210457

>  <smiles>  (549) 
CC(C)(C)NC(=O)N[C@H](C(=O)N1C[C@H]2[C@@H]([C@H]1C(=O)N[C@H](CC1CCC1)C(=O)C(N)=O)C2(C)C)C(C)(C)C

$$$$

     RDKit          3D

 42 45  0  0  0  0  0  0  0  0999 V2000
    3.2073    0.9304    3.2491 C   0  0  0  0  0  0  0  0  0  0  0  0
    2.5111    0.0881    3.0518 N   0  0  0  0  0  0  0  0  0  0  0  0
    2.1673   -0.8973    4.0740 C   0  0  0  0  0  0  0  0  0  0  0  0
    2.3175   -0.3632    1.7050 C   0  0  0  0  0  0  0  0  0  0  0  0
    3.4559   -0.6002    0.9469 C   0  0  0  0  0  0  0  0  0  0  0  0
    3.4088   -0.6436   -0.4403 C   0  0  0  0  0  0  0  0  0  0  0  0
    4.5560   -0.3746   -1.2485 N   0  0  0  0  0  0  0  0  0  0  0  0
    5.0184    0.9758   -1.2554 C   0  0  0  0  0  0  0  0  0  0  0  0
    4.2145    1.9387   -1.1072 O   0  0  0  0  0  0  0  0  0  0  0  0
    6.4742    1.3059   -1.3488 C   0  0  0  0  0  0  0  0  0  0  0  0
    7.0625    0.9949   -0.0643 N   0  0  0  0  0  0  0  0  0  0  0  0
    8.4909    0.7440   -0.2044 C   0  0  0  0  0  0  0  0  0  0  0  0
    8.7450   -0.4187   -1.1207 C   0  0  0  0  0  0  0  0  0  0  0  0
    9.1616    1.9983   -0.7127 C   0  0  0  0  0  0  0  0  0  0  0  0
    9.0685    0.4270    1.1576 C   0  0  0  0  0  0  0  0  0  0  0  0
    2.1678   -0.5859   -1.0570 C   0  0  0  0  0  0  0  0  0  0  0  0
    1.9936   -0.8123   -2.4166 O   0  0  0  0  0  0  0  0  0  0  0  0
    1.0719   -0.3953   -0.2850 C   0  0  0  0  0  0  0  0  0  0  0  0
    1.0633   -0.3050    1.1071 C   0  0  0  0  0  0  0  0  0  0  0  0
    0.0790    0.6983    1.5887 C   0  0  0  0  0  0  0  0  0  0  0  0
   -1.3946   -0.0702    1.6327 C   0  0  1  0  0  0  0  0  0  0  0  0
   -2.1052    1.1746    0.7941 C   0  0  0  0  0  0  0  0  0  0  0  0
   -3.6880    0.7842    0.8581 C   0  0  1  0  0  0  0  0  0  0  0  0
   -3.7901    0.7880   -0.8785 C   0  0  2  0  0  0  0  0  0  0  0  0
   -3.9042    2.3726   -0.9209 N   0  0  0  0  0  0  0  0  0  0  0  0
   -4.1753    2.6951   -2.2810 C   0  0  0  0  0  0  0  0  0  0  0  0
   -4.8749    2.7409    0.0380 C   0  0  0  0  0  0  0  0  0  0  0  0
   -5.4070    0.5850   -0.8337 C   0  0  0  0  0  0  0  0  0  0  0  0
   -6.0647    1.0272   -1.9725 O   0  0  0  0  0  0  0  0  0  0  0  0
   -5.6779   -0.6748   -0.4867 C   0  0  0  0  0  0  0  0  0  0  0  0
   -6.6792   -1.4704   -1.2085 C   0  0  0  0  0  0  0  0  0  0  0  0
   -7.8765   -0.8133   -1.5747 N   0  0  0  0  0  0  0  0  0  0  0  0
   -6.6767   -2.7205   -1.1469 O   0  0  0  0  0  0  0  0  0  0  0  0
   -4.8663   -1.3261    0.5490 C   0  0  0  0  0  0  0  0  0  0  0  0
   -5.1719   -2.5151    0.8602 O   0  0  0  0  0  0  0  0  0  0  0  0
   -3.5187   -0.8438    0.8818 C   0  0  2  0  0  0  0  0  0  0  0  0
   -3.1433   -1.0997    2.1943 O   0  0  0  0  0  0  0  0  0  0  0  0
   -2.4854   -1.1779   -0.1027 C   0  0  0  0  0  0  0  0  0  0  0  0
   -2.6945   -1.8627   -1.2899 O   0  0  0  0  0  0  0  0  0  0  0  0
   -1.2206   -0.9386    0.2584 C   0  0  0  0  0  0  0  0  0  0  0  0
   -0.3231   -0.4502   -0.7633 C   0  0  0  0  0  0  0  0  0  0  0  0
   -0.4972   -0.9095   -1.9361 O   0  0  0  0  0  0  0  0  0  0  0  0
  1  2  1  0
  2  3  1  0
  2  4  1  0
  4  5  2  0
  5  6  1  0
  6  7  1  0
  7  8  1  0
  8  9  2  0
  8 10  1  0
 10 11  1  0
 11 12  1  0
 12 13  1  0
 12 14  1  0
 12 15  1  0
  6 16  2  0
 16 17  1  0
 16 18  1  0
 18 19  2  0
 19 20  1  0
 21 20  1  6
 21 22  1  0
 23 22  1  6
 23 24  1  0
 24 25  1  1
 25 26  1  0
 25 27  1  0
 24 28  1  0
 28 29  1  0
 28 30  2  0
 30 31  1  0
 31 32  1  0
 31 33  2  0
 30 34  1  0
 34 35  2  0
 34 36  1  0
 36 37  1  1
 36 38  1  0
 38 39  1  0
 38 40  2  0
 40 41  1  0
 41 42  2  0
 19  4  1  0
 40 21  1  0
 41 18  1  0
 36 23  1  0
M  END
>  <zinc_id>  (550) 
ZINC000014879972

>  <smiles>  (550) 
CN(C)c1cc(NC(=O)CNC(C)(C)C)c(O)c2c1C[C@H]1C[C@H]3[C@H](N(C)C)C(O)=C(C(N)=O)C(=O)[C@@]3(O)C(O)=C1C2=O

$$$$

     RDKit          3D

 33 36  0  0  0  0  0  0  0  0999 V2000
   -4.0980    2.9246   -0.5913 C   0  0  0  0  0  0  0  0  0  0  0  0
   -4.8371    1.9675    0.0892 N   0  0  0  0  0  0  0  0  0  0  0  0
   -5.3292    2.3405    1.4144 C   0  0  0  0  0  0  0  0  0  0  0  0
   -4.5886    0.5927   -0.2234 C   0  0  0  0  0  0  0  0  0  0  0  0
   -5.6396   -0.2355   -0.5984 C   0  0  0  0  0  0  0  0  0  0  0  0
   -5.5127   -1.6046   -0.6396 C   0  0  0  0  0  0  0  0  0  0  0  0
   -4.2744   -2.1432   -0.3887 C   0  0  0  0  0  0  0  0  0  0  0  0
   -4.0909   -3.5052   -0.2647 O   0  0  0  0  0  0  0  0  0  0  0  0
   -3.2154   -1.3128   -0.1429 C   0  0  0  0  0  0  0  0  0  0  0  0
   -3.3395    0.0601    0.0230 C   0  0  0  0  0  0  0  0  0  0  0  0
   -2.2080    0.8541    0.5800 C   0  0  0  0  0  0  0  0  0  0  0  0
   -0.9745    0.5085   -0.4819 C   0  0  1  0  0  0  0  0  0  0  0  0
    0.1766    1.1047    0.5609 C   0  0  0  0  0  0  0  0  0  0  0  0
    1.3726    0.9851   -0.5558 C   0  0  1  0  0  0  0  0  0  0  0  0
    2.5516    1.4443    0.6394 C   0  0  2  0  0  0  0  0  0  0  0  0
    2.3545    2.9788    0.2820 N   0  0  0  0  0  0  0  0  0  0  0  0
    3.3251    3.6972    1.0406 C   0  0  0  0  0  0  0  0  0  0  0  0
    2.4413    3.0903   -1.1271 C   0  0  0  0  0  0  0  0  0  0  0  0
    3.7794    1.2550   -0.4215 C   0  0  0  0  0  0  0  0  0  0  0  0
    4.8201    2.1487   -0.2638 O   0  0  0  0  0  0  0  0  0  0  0  0
    4.0368   -0.0568   -0.3935 C   0  0  0  0  0  0  0  0  0  0  0  0
    5.3991   -0.5994   -0.4005 C   0  0  0  0  0  0  0  0  0  0  0  0
    5.6413   -1.6750   -1.3182 N   0  0  0  0  0  0  0  0  0  0  0  0
    6.0737   -0.6684    0.6718 O   0  0  0  0  0  0  0  0  0  0  0  0
    2.9214   -0.8891    0.0884 C   0  0  0  0  0  0  0  0  0  0  0  0
    3.1196   -1.8931    0.8283 O   0  0  0  0  0  0  0  0  0  0  0  0
    1.6006   -0.6190   -0.4067 C   0  0  2  0  0  0  0  0  0  0  0  0
    1.6066   -0.9564   -1.7762 O   0  0  0  0  0  0  0  0  0  0  0  0
    0.4815   -1.2721    0.1980 C   0  0  0  0  0  0  0  0  0  0  0  0
    0.7197   -2.5480    0.7207 O   0  0  0  0  0  0  0  0  0  0  0  0
   -0.7859   -0.9804    0.1510 C   0  0  0  0  0  0  0  0  0  0  0  0
   -1.8745   -1.8897   -0.1240 C   0  0  0  0  0  0  0  0  0  0  0  0
   -1.6531   -3.1034    0.1636 O   0  0  0  0  0  0  0  0  0  0  0  0
  1  2  1  0
  2  3  1  0
  2  4  1  0
  4  5  2  0
  5  6  1  0
  6  7  2  0
  7  8  1  0
  7  9  1  0
  9 10  2  0
 10 11  1  0
 12 11  1  1
 12 13  1  0
 14 13  1  1
 14 15  1  0
 15 16  1  6
 16 17  1  0
 16 18  1  0
 15 19  1  0
 19 20  1  0
 19 21  2  0
 21 22  1  0
 22 23  1  0
 22 24  2  0
 21 25  1  0
 25 26  2  0
 25 27  1  0
 27 28  1  6
 27 29  1  0
 29 30  1  0
 29 31  2  0
 31 32  1  0
 32 33  2  0
 10  4  1  0
 31 12  1  0
 32  9  1  0
 27 14  1  0
M  END
>  <zinc_id>  (551) 
ZINC000014879992

>  <smiles>  (551) 
CN(C)c1ccc(O)c2c1C[C@H]1C[C@H]3[C@H](N(C)C)C(O)=C(C(N)=O)C(=O)[C@@]3(O)C(O)=C1C2=O

$$$$

     RDKit          3D

 37 39  0  0  0  0  0  0  0  0999 V2000
    6.6520    2.7401    0.2763 C   0  0  0  0  0  0  0  0  0  0  0  0
    5.1901    2.9679    0.0539 C   0  0  0  0  0  0  0  0  0  0  0  0
    5.0429    3.9196   -1.1467 C   0  0  0  0  0  0  0  0  0  0  0  0
    4.7898    3.9324    1.1904 C   0  0  0  0  0  0  0  0  0  0  0  0
    4.2750    1.9637    0.1082 N   0  0  0  0  0  0  0  0  0  0  0  0
    3.8900    1.0520   -0.8634 C   0  0  0  0  0  0  0  0  0  0  0  0
    4.8325    0.3389   -1.2137 O   0  0  0  0  0  0  0  0  0  0  0  0
    2.8788    0.6283   -1.5506 N   0  0  0  0  0  0  0  0  0  0  0  0
    1.9666   -0.6297   -1.4792 C   0  0  2  0  0  0  0  0  0  0  0  0
    2.0341   -0.9414    0.1051 C   0  0  0  0  0  0  0  0  0  0  0  0
    2.9915   -0.5978    0.7611 O   0  0  0  0  0  0  0  0  0  0  0  0
    0.8541   -1.3801    0.7293 N   0  0  0  0  0  0  0  0  0  0  0  0
    0.5361   -1.1620    1.9943 C   0  0  0  0  0  0  0  0  0  0  0  0
   -0.5757   -2.2618    2.4196 C   0  0  1  0  0  0  0  0  0  0  0  0
   -1.3812   -2.3962    0.9502 C   0  0  1  0  0  0  0  0  0  0  0  0
   -0.4885   -1.3391   -0.0270 C   0  0  1  0  0  0  0  0  0  0  0  0
   -1.0582   -0.0141    0.6977 C   0  0  0  0  0  0  0  0  0  0  0  0
   -0.4136    0.9595    0.1899 O   0  0  0  0  0  0  0  0  0  0  0  0
   -2.4230    0.3072    0.6614 N   0  0  0  0  0  0  0  0  0  0  0  0
   -3.1177    0.5895   -0.7235 C   0  0  1  0  0  0  0  0  0  0  0  0
   -4.4609   -0.2549   -0.2874 C   0  0  0  0  0  0  0  0  0  0  0  0
   -4.7411    0.0087    1.1339 C   0  0  0  0  0  0  0  0  0  0  0  0
   -5.4867   -0.9757    1.9384 C   0  0  0  0  0  0  0  0  0  0  0  0
   -6.1661    0.2040    2.6321 C   0  0  0  0  0  0  0  0  0  0  0  0
   -5.5890    1.1370    1.5693 C   0  0  0  0  0  0  0  0  0  0  0  0
   -3.8358    1.9877   -0.3469 C   0  0  0  0  0  0  0  0  0  0  0  0
   -3.0237    2.9340   -0.1094 O   0  0  0  0  0  0  0  0  0  0  0  0
   -4.7939    2.2684   -1.4329 C   0  0  0  0  0  0  0  0  0  0  0  0
   -5.3452    1.2547   -2.2842 N   0  0  0  0  0  0  0  0  0  0  0  0
   -4.9474    3.4307   -1.9181 O   0  0  0  0  0  0  0  0  0  0  0  0
   -0.2112   -3.5492    1.3727 C   0  0  0  0  0  0  0  0  0  0  0  0
    0.8900   -3.8099    0.7190 C   0  0  0  0  0  0  0  0  0  0  0  0
   -1.1333   -4.6734    1.8540 C   0  0  0  0  0  0  0  0  0  0  0  0
    3.0336   -1.8098   -1.8726 C   0  0  0  0  0  0  0  0  0  0  0  0
    3.5574   -1.5854   -3.2179 C   0  0  0  0  0  0  0  0  0  0  0  0
    1.9579   -2.9014   -2.0634 C   0  0  0  0  0  0  0  0  0  0  0  0
    3.8198   -2.3420   -0.8201 C   0  0  0  0  0  0  0  0  0  0  0  0
  1  2  1  0
  2  3  1  0
  2  4  1  0
  2  5  1  0
  5  6  1  0
  6  7  2  0
  6  8  1  0
  9  8  1  1
  9 10  1  0
 10 11  2  0
 10 12  1  0
 12 13  1  0
 14 13  1  6
 14 15  1  0
 15 16  1  0
 16 17  1  1
 17 18  2  0
 17 19  1  0
 20 19  1  1
 20 21  1  0
 21 22  1  0
 22 23  1  0
 23 24  1  0
 24 25  1  0
 20 26  1  0
 26 27  2  0
 26 28  1  0
 28 29  1  0
 28 30  2  0
 15 31  1  6
 31 32  1  0
 31 33  1  0
  9 34  1  0
 34 35  1  0
 34 36  1  0
 34 37  1  0
 16 12  1  0
 25 22  1  0
 31 14  1  0
M  END
>  <zinc_id>  (552) 
ZINC000014210455

>  <smiles>  (552) 
CC(C)(C)NC(=O)N[C@H](C(=O)N1C[C@H]2[C@@H]([C@H]1C(=O)N[C@@H](CC1CCC1)C(=O)C(N)=O)C2(C)C)C(C)(C)C

$$$$

     RDKit          3D

 28 31  0  0  0  0  0  0  0  0999 V2000
   -0.1944   -4.0757   -1.3351 C   0  0  0  0  0  0  0  0  0  0  0  0
   -0.9325   -3.2239   -1.9920 C   0  0  0  0  0  0  0  0  0  0  0  0
   -0.7812   -1.9029   -1.3888 N   0  0  0  0  0  0  0  0  0  0  0  0
    0.3623   -1.5653   -0.5436 C   0  0  0  0  0  0  0  0  0  0  0  0
    0.3083    0.0512   -0.8985 C   0  0  2  0  0  0  0  0  0  0  0  0
    0.9449    0.4824    0.5686 C   0  0  0  0  0  0  0  0  0  0  0  0
    2.0927    1.3632    0.0955 C   0  0  0  0  0  0  0  0  0  0  0  0
    3.3825    0.7907    0.3079 N   0  0  0  0  0  0  0  0  0  0  0  0
    4.4200    1.8054    0.3813 C   0  0  0  0  0  0  0  0  0  0  0  0
    5.7551    1.1546    0.6100 C   0  0  0  0  0  0  0  0  0  0  0  0
    6.0554    0.1735   -0.3369 O   0  0  0  0  0  0  0  0  0  0  0  0
    5.0634   -0.8131   -0.3553 C   0  0  0  0  0  0  0  0  0  0  0  0
    3.7386   -0.1875   -0.7173 C   0  0  0  0  0  0  0  0  0  0  0  0
   -1.2509    0.0938   -0.3635 C   0  0  0  0  0  0  0  0  0  0  0  0
   -1.7211    1.4333   -0.3964 C   0  0  0  0  0  0  0  0  0  0  0  0
   -2.6726    1.8940   -1.2982 C   0  0  0  0  0  0  0  0  0  0  0  0
   -3.3815    3.0667   -1.0666 C   0  0  0  0  0  0  0  0  0  0  0  0
   -3.0290    3.9072   -0.0482 C   0  0  0  0  0  0  0  0  0  0  0  0
   -2.1579    3.4263    0.9016 C   0  0  0  0  0  0  0  0  0  0  0  0
   -1.3736    2.3201    0.5847 C   0  0  0  0  0  0  0  0  0  0  0  0
   -1.4019   -0.7268    0.8021 C   0  0  0  0  0  0  0  0  0  0  0  0
   -0.9565   -0.4820    2.0978 C   0  0  0  0  0  0  0  0  0  0  0  0
   -0.8325   -1.6472    2.8521 C   0  0  0  0  0  0  0  0  0  0  0  0
   -1.9923   -2.4157    2.8817 C   0  0  0  0  0  0  0  0  0  0  0  0
   -2.9893   -2.1816    1.9388 C   0  0  0  0  0  0  0  0  0  0  0  0
   -2.5775   -1.4860    0.8254 C   0  0  0  0  0  0  0  0  0  0  0  0
   -1.6491   -0.7687   -1.5247 C   0  0  0  0  0  0  0  0  0  0  0  0
   -2.2293   -0.4859   -2.5824 O   0  0  0  0  0  0  0  0  0  0  0  0
  1  2  1  0
  2  3  1  0
  3  4  1  0
  4  5  1  0
  5  6  1  1
  6  7  1  0
  7  8  1  0
  8  9  1  0
  9 10  1  0
 10 11  1  0
 11 12  1  0
 12 13  1  0
  5 14  1  0
 14 15  1  0
 15 16  2  0
 16 17  1  0
 17 18  2  0
 18 19  1  0
 19 20  2  0
 14 21  1  0
 21 22  2  0
 22 23  1  0
 23 24  2  0
 24 25  1  0
 25 26  2  0
 14 27  1  0
 27 28  2  0
 27  3  1  0
 13  8  1  0
 20 15  1  0
 26 21  1  0
M  END
>  <zinc_id>  (553) 
ZINC000019632670

>  <smiles>  (553) 
CCN1C[C@H](CCN2CCOCC2)C(c2ccccc2)(c2ccccc2)C1=O

$$$$

     RDKit          3D

 27 30  0  0  0  0  0  0  0  0999 V2000
    6.7426   -0.3596    0.2691 C   0  0  0  0  0  0  0  0  0  0  0  0
    5.5070   -0.6078   -0.2231 N   0  0  0  0  0  0  0  0  0  0  0  0
    4.7470   -1.5425    0.5619 C   0  0  0  0  0  0  0  0  0  0  0  0
    3.3030   -1.6744    0.0916 C   0  0  0  0  0  0  0  0  0  0  0  0
    2.7072   -0.3733    0.2221 N   0  0  0  0  0  0  0  0  0  0  0  0
    1.3158   -0.0956    0.0252 C   0  0  0  0  0  0  0  0  0  0  0  0
    0.8516   -0.0012   -1.1563 O   0  0  0  0  0  0  0  0  0  0  0  0
    0.7783    0.9644    0.7062 O   0  0  0  0  0  0  0  0  0  0  0  0
   -0.7725    0.8967    0.9824 C   0  0  1  0  0  0  0  0  0  0  0  0
   -0.9816    2.3457    0.1988 C   0  0  0  0  0  0  0  0  0  0  0  0
   -0.7048    3.4099    0.9985 N   0  0  0  0  0  0  0  0  0  0  0  0
   -1.4924    4.4924    0.8785 C   0  0  0  0  0  0  0  0  0  0  0  0
   -2.6348    4.4567    0.0850 C   0  0  0  0  0  0  0  0  0  0  0  0
   -3.0166    3.2688   -0.4211 N   0  0  0  0  0  0  0  0  0  0  0  0
   -2.2621    2.1580   -0.2305 C   0  0  0  0  0  0  0  0  0  0  0  0
   -2.1943    0.8680   -0.9096 C   0  0  0  0  0  0  0  0  0  0  0  0
   -3.1791    0.4849   -1.6157 O   0  0  0  0  0  0  0  0  0  0  0  0
   -1.1434    0.0562   -0.3529 N   0  0  0  0  0  0  0  0  0  0  0  0
   -1.5374   -1.2971   -0.0192 C   0  0  0  0  0  0  0  0  0  0  0  0
   -2.1738   -2.0373   -1.0087 C   0  0  0  0  0  0  0  0  0  0  0  0
   -2.7722   -3.2621   -0.7326 C   0  0  0  0  0  0  0  0  0  0  0  0
   -2.8021   -3.5787    0.6207 C   0  0  0  0  0  0  0  0  0  0  0  0
   -3.9336   -4.7487    1.2758 Cl  0  0  0  0  0  0  0  0  0  0  0  0
   -1.6789   -3.1641    1.3268 C   0  0  0  0  0  0  0  0  0  0  0  0
   -1.0965   -1.9774    1.0244 N   0  0  0  0  0  0  0  0  0  0  0  0
    3.6518    0.6893    0.5591 C   0  0  0  0  0  0  0  0  0  0  0  0
    4.7718    0.6288   -0.4724 C   0  0  0  0  0  0  0  0  0  0  0  0
  1  2  1  0
  2  3  1  0
  3  4  1  0
  4  5  1  0
  5  6  1  0
  6  7  2  0
  6  8  1  0
  9  8  1  6
  9 10  1  0
 10 11  2  0
 11 12  1  0
 12 13  2  0
 13 14  1  0
 14 15  2  0
 15 16  1  0
 16 17  2  0
 16 18  1  0
 18 19  1  0
 19 20  2  0
 20 21  1  0
 21 22  2  0
 22 23  1  0
 22 24  1  0
 24 25  2  0
  5 26  1  0
 26 27  1  0
 27  2  1  0
 18  9  1  0
 25 19  1  0
 15 10  1  0
M  END
>  <zinc_id>  (554) 
ZINC000019632834

>  <smiles>  (554) 
CN1CCN(C(=O)O[C@H]2c3nccnc3C(=O)N2c2ccc(Cl)cn2)CC1

$$$$

     RDKit          3D

 25 28  0  0  0  0  0  0  0  0999 V2000
    6.8187    0.6044    0.4384 C   0  0  0  0  0  0  0  0  0  0  0  0
    5.5594   -0.0610    0.2306 N   0  0  0  0  0  0  0  0  0  0  0  0
    4.9619   -0.5062    1.4634 C   0  0  0  0  0  0  0  0  0  0  0  0
    3.5130   -0.8664    1.2747 C   0  0  0  0  0  0  0  0  0  0  0  0
    3.2902   -1.1140   -0.1379 N   0  0  0  0  0  0  0  0  0  0  0  0
    1.9366   -1.6069   -0.3857 C   0  0  0  0  0  0  0  0  0  0  0  0
    0.9996   -0.4277   -0.5549 C   0  0  0  0  0  0  0  0  0  0  0  0
   -0.2256   -0.7794   -1.3665 C   0  0  0  0  0  0  0  0  0  0  0  0
   -1.4535   -0.5898   -0.6089 N   0  0  0  0  0  0  0  0  0  0  0  0
   -2.6705   -0.4055   -1.3286 C   0  0  0  0  0  0  0  0  0  0  0  0
   -2.7072   -0.2523   -2.7086 C   0  0  0  0  0  0  0  0  0  0  0  0
   -3.8421    0.2941   -3.2966 C   0  0  0  0  0  0  0  0  0  0  0  0
   -4.7902    0.9027   -2.4828 C   0  0  0  0  0  0  0  0  0  0  0  0
   -4.8209    0.6531   -1.1192 C   0  0  0  0  0  0  0  0  0  0  0  0
   -3.8876   -0.2730   -0.6698 C   0  0  0  0  0  0  0  0  0  0  0  0
   -3.9264   -0.9228    1.0036 S   0  0  0  0  0  0  0  0  0  0  0  0
   -2.3043   -0.5703    1.6936 C   0  0  0  0  0  0  0  0  0  0  0  0
   -2.3055    0.1207    2.8986 C   0  0  0  0  0  0  0  0  0  0  0  0
   -1.2853    0.9653    3.2715 C   0  0  0  0  0  0  0  0  0  0  0  0
   -0.1967    1.1221    2.4422 C   0  0  0  0  0  0  0  0  0  0  0  0
    0.7884    2.5482    2.6982 Cl  0  0  0  0  0  0  0  0  0  0  0  0
   -0.1841    0.4016    1.2601 C   0  0  0  0  0  0  0  0  0  0  0  0
   -1.3162   -0.2410    0.7734 C   0  0  0  0  0  0  0  0  0  0  0  0
    3.4057    0.1396   -0.8454 C   0  0  0  0  0  0  0  0  0  0  0  0
    4.6427    0.8642   -0.3974 C   0  0  0  0  0  0  0  0  0  0  0  0
  1  2  1  0
  2  3  1  0
  3  4  1  0
  4  5  1  0
  5  6  1  0
  6  7  1  0
  7  8  1  0
  8  9  1  0
  9 10  1  0
 10 11  2  0
 11 12  1  0
 12 13  2  0
 13 14  1  0
 14 15  2  0
 15 16  1  0
 16 17  1  0
 17 18  2  0
 18 19  1  0
 19 20  2  0
 20 21  1  0
 20 22  1  0
 22 23  2  0
  5 24  1  0
 24 25  1  0
 25  2  1  0
 23  9  1  0
 15 10  1  0
 23 17  1  0
M  END
>  <zinc_id>  (555) 
ZINC000019796018

>  <smiles>  (555) 
CN1CCN(CCCN2c3ccccc3Sc3ccc(Cl)cc32)CC1

$$$$

     RDKit          3D

 16 17  0  0  0  0  0  0  0  0999 V2000
    1.0196    2.6953    0.7100 C   0  0  0  0  0  0  0  0  0  0  0  0
    0.5503    1.5368    1.3480 N   0  0  0  0  0  0  0  0  0  0  0  0
    0.6814    0.3825    0.4993 C   0  0  2  0  0  0  0  0  0  0  0  0
   -0.6149    0.1238   -0.1684 C   0  0  0  0  0  0  0  0  0  0  0  0
   -0.8692    0.3913   -1.4880 C   0  0  0  0  0  0  0  0  0  0  0  0
   -2.1351    0.1221   -1.9716 C   0  0  0  0  0  0  0  0  0  0  0  0
   -3.1055   -0.5010   -1.1980 C   0  0  0  0  0  0  0  0  0  0  0  0
   -2.9213   -0.4693    0.1776 C   0  0  0  0  0  0  0  0  0  0  0  0
   -1.6585   -0.2494    0.6694 C   0  0  0  0  0  0  0  0  0  0  0  0
   -1.4646   -0.2260    2.4163 Cl  0  0  0  0  0  0  0  0  0  0  0  0
    1.0004   -0.8686    1.3122 C   0  0  0  0  0  0  0  0  0  0  0  0
    0.9052   -2.0177    0.3137 C   0  0  0  0  0  0  0  0  0  0  0  0
    1.9668   -1.9040   -0.7447 C   0  0  0  0  0  0  0  0  0  0  0  0
    1.9973   -0.5720   -1.4316 C   0  0  0  0  0  0  0  0  0  0  0  0
    1.8039    0.5529   -0.4617 C   0  0  0  0  0  0  0  0  0  0  0  0
    2.8440    1.0035    0.0175 O   0  0  0  0  0  0  0  0  0  0  0  0
  1  2  1  0
  3  2  1  1
  3  4  1  0
  4  5  2  0
  5  6  1  0
  6  7  2  0
  7  8  1  0
  8  9  2  0
  9 10  1  0
  3 11  1  0
 11 12  1  0
 12 13  1  0
 13 14  1  0
 14 15  1  0
 15 16  2  0
 15  3  1  0
  9  4  1  0
M  END
>  <zinc_id>  (556) 
ZINC000035999642

>  <smiles>  (556) 
CN[C@]1(c2ccccc2Cl)CCCCC1=O

$$$$

     RDKit          3D

 18 19  0  0  0  0  0  0  0  0999 V2000
   -4.7266    0.9401    0.3963 N   0  0  0  0  0  0  0  0  0  0  0  0
   -3.5736    0.4384   -0.1204 C   0  0  0  0  0  0  0  0  0  0  0  0
   -2.7738    1.1822   -0.9790 C   0  0  0  0  0  0  0  0  0  0  0  0
   -1.4294    0.9650   -0.8886 C   0  0  0  0  0  0  0  0  0  0  0  0
   -0.8583   -0.2084   -0.5091 N   0  0  0  0  0  0  0  0  0  0  0  0
    0.4232    0.0290    0.4242 C   0  0  2  0  0  0  0  0  0  0  0  0
    1.0364    1.0922   -0.5085 O   0  0  0  0  0  0  0  0  0  0  0  0
    2.0928    1.0733    0.5763 C   0  0  2  0  0  0  0  0  0  0  0  0
    3.0993    2.0786   -0.2404 C   0  0  0  0  0  0  0  0  0  0  0  0
    3.2057    1.6017   -1.5176 O   0  0  0  0  0  0  0  0  0  0  0  0
    2.8074   -0.3499   -0.0930 C   0  0  1  0  0  0  0  0  0  0  0  0
    2.9765   -0.9373    1.2936 O   0  0  0  0  0  0  0  0  0  0  0  0
    1.3642   -1.0817   -0.3466 C   0  0  0  0  0  0  0  0  0  0  0  0
    1.3232   -2.2344    0.2517 F   0  0  0  0  0  0  0  0  0  0  0  0
    1.1523   -0.9411   -1.6575 F   0  0  0  0  0  0  0  0  0  0  0  0
   -1.7187   -1.0047    0.1806 C   0  0  0  0  0  0  0  0  0  0  0  0
   -1.3461   -1.8773    1.0010 O   0  0  0  0  0  0  0  0  0  0  0  0
   -3.0546   -0.7656    0.2126 N   0  0  0  0  0  0  0  0  0  0  0  0
  1  2  1  0
  2  3  1  0
  3  4  2  0
  4  5  1  0
  6  5  1  6
  6  7  1  0
  7  8  1  0
  8  9  1  6
  9 10  1  0
  8 11  1  0
 11 12  1  1
 11 13  1  0
 13 14  1  0
 13 15  1  0
  5 16  1  0
 16 17  2  0
 16 18  1  0
 18  2  2  0
 13  6  1  0
M  END
>  <zinc_id>  (557) 
ZINC000018279854

>  <smiles>  (557) 
Nc1ccn([C@@H]2O[C@H](CO)[C@@H](O)C2(F)F)c(=O)n1

$$$$

     RDKit          3D

 22 25  0  0  0  0  0  0  0  0999 V2000
    5.5118   -1.2977   -1.0996 C   0  0  0  0  0  0  0  0  0  0  0  0
    4.8561   -0.3593   -0.1489 C   0  0  0  0  0  0  0  0  0  0  0  0
    5.4101    0.1082    0.9936 N   0  0  0  0  0  0  0  0  0  0  0  0
    4.6407    1.1712    1.3149 C   0  0  0  0  0  0  0  0  0  0  0  0
    3.5050    1.1605    0.5796 N   0  0  0  0  0  0  0  0  0  0  0  0
    3.5421    0.0849   -0.2304 C   0  0  0  0  0  0  0  0  0  0  0  0
    2.3989   -0.7178   -0.7649 C   0  0  0  0  0  0  0  0  0  0  0  0
    1.1593   -0.1911   -0.2485 N   0  0  0  0  0  0  0  0  0  0  0  0
    0.9297    1.2337   -0.0248 C   0  0  0  0  0  0  0  0  0  0  0  0
   -0.0081    1.4677    1.1385 C   0  0  0  0  0  0  0  0  0  0  0  0
   -1.3231    0.8492    0.7840 C   0  0  0  0  0  0  0  0  0  0  0  0
   -1.2925   -0.3892    0.1541 C   0  0  0  0  0  0  0  0  0  0  0  0
   -2.6329   -0.6734   -0.0799 C   0  0  0  0  0  0  0  0  0  0  0  0
   -3.2115   -1.8020   -0.5911 C   0  0  0  0  0  0  0  0  0  0  0  0
   -4.5852   -1.9375   -0.5434 C   0  0  0  0  0  0  0  0  0  0  0  0
   -5.3263   -0.8044   -0.2794 C   0  0  0  0  0  0  0  0  0  0  0  0
   -4.7340    0.4365   -0.1052 C   0  0  0  0  0  0  0  0  0  0  0  0
   -3.3561    0.5115   -0.0084 C   0  0  0  0  0  0  0  0  0  0  0  0
   -2.5533    1.3965    0.6303 N   0  0  0  0  0  0  0  0  0  0  0  0
   -2.8500    2.8254    0.6304 C   0  0  0  0  0  0  0  0  0  0  0  0
   -0.0301   -0.9866   -0.2993 C   0  0  0  0  0  0  0  0  0  0  0  0
   -0.0505   -2.0864   -0.9268 O   0  0  0  0  0  0  0  0  0  0  0  0
  1  2  1  0
  2  3  1  0
  3  4  2  0
  4  5  1  0
  5  6  1  0
  6  7  1  0
  7  8  1  0
  8  9  1  0
  9 10  1  0
 10 11  1  0
 11 12  2  0
 12 13  1  0
 13 14  2  0
 14 15  1  0
 15 16  2  0
 16 17  1  0
 17 18  2  0
 18 19  1  0
 19 20  1  0
 12 21  1  0
 21 22  2  0
  6  2  2  0
 21  8  1  0
 19 11  1  0
 18 13  1  0
M  END
>  <zinc_id>  (558) 
ZINC000013537284

>  <smiles>  (558) 
Cc1nc[nH]c1CN1CCc2c(c3ccccc3n2C)C1=O

$$$$

     RDKit          3D

 17 19  0  0  0  0  0  0  0  0999 V2000
   -3.6924    0.5163    1.4979 O   0  0  0  0  0  0  0  0  0  0  0  0
   -3.2165    0.4923    0.5826 C   0  0  0  0  0  0  0  0  0  0  0  0
   -3.1320    1.5565   -0.2507 N   0  0  0  0  0  0  0  0  0  0  0  0
   -2.2247    1.6088   -1.2578 C   0  0  0  0  0  0  0  0  0  0  0  0
   -1.0183    1.0316   -1.0121 N   0  0  0  0  0  0  0  0  0  0  0  0
   -1.0917   -0.1580   -0.4200 C   0  0  0  0  0  0  0  0  0  0  0  0
   -2.1636   -0.4057    0.4344 C   0  0  0  0  0  0  0  0  0  0  0  0
   -1.8413   -1.5363    1.1080 N   0  0  0  0  0  0  0  0  0  0  0  0
   -0.7467   -2.0323    0.4660 C   0  0  0  0  0  0  0  0  0  0  0  0
   -0.0980   -1.0330   -0.1976 N   0  0  0  0  0  0  0  0  0  0  0  0
    1.1962   -0.5846    0.6241 C   0  0  1  0  0  0  0  0  0  0  0  0
    2.0944   -1.8346    0.0074 C   0  0  0  0  0  0  0  0  0  0  0  0
    3.3755   -1.1585    0.2476 C   0  0  0  0  0  0  0  0  0  0  0  0
    2.9199    0.4052    0.5534 C   0  0  1  0  0  0  0  0  0  0  0  0
    4.0916    0.9049   -0.4752 C   0  0  0  0  0  0  0  0  0  0  0  0
    3.7669    1.9053   -1.2450 O   0  0  0  0  0  0  0  0  0  0  0  0
    1.7806    0.3220   -0.4703 O   0  0  0  0  0  0  0  0  0  0  0  0
  1  2  2  0
  2  3  1  0
  3  4  1  0
  4  5  2  0
  5  6  1  0
  6  7  2  0
  7  8  1  0
  8  9  2  0
  9 10  1  0
 11 10  1  6
 11 12  1  0
 12 13  1  0
 13 14  1  0
 14 15  1  6
 15 16  1  0
 14 17  1  0
  7  2  1  0
 17 11  1  0
 10  6  1  0
M  END
>  <zinc_id>  (559) 
ZINC000013597823

>  <smiles>  (559) 
O=c1[nH]cnc2c1ncn2[C@H]1CC[C@@H](CO)O1

$$$$

     RDKit          3D

 31 33  0  0  0  0  0  0  0  0999 V2000
    0.7472   -3.7099   -0.3741 C   0  0  0  0  0  0  0  0  0  0  0  0
    1.1179   -2.8439   -0.5293 O   0  0  0  0  0  0  0  0  0  0  0  0
    0.6445   -1.5650   -0.3331 C   0  0  0  0  0  0  0  0  0  0  0  0
   -0.6306   -1.2574   -0.7987 C   0  0  0  0  0  0  0  0  0  0  0  0
   -1.2678   -0.1531   -0.2988 C   0  0  0  0  0  0  0  0  0  0  0  0
   -0.5274    0.8173    0.3678 C   0  0  0  0  0  0  0  0  0  0  0  0
    0.7738    0.5538    0.7356 C   0  0  0  0  0  0  0  0  0  0  0  0
    1.4188   -0.5405    0.1992 C   0  0  0  0  0  0  0  0  0  0  0  0
    2.6656   -0.9869    0.8965 C   0  0  0  0  0  0  0  0  0  0  0  0
    3.7960   -0.6676   -0.0071 C   0  0  0  0  0  0  0  0  0  0  0  0
    3.7837   -0.9593   -1.3609 C   0  0  0  0  0  0  0  0  0  0  0  0
    4.7661   -0.4491   -2.1968 C   0  0  0  0  0  0  0  0  0  0  0  0
    5.7438    0.3430   -1.6355 C   0  0  0  0  0  0  0  0  0  0  0  0
    5.9259    0.3382   -0.2584 C   0  0  0  0  0  0  0  0  0  0  0  0
    7.3830    1.0696    0.3571 Cl  0  0  0  0  0  0  0  0  0  0  0  0
    4.9714   -0.2158    0.5678 C   0  0  0  0  0  0  0  0  0  0  0  0
    5.1452   -0.1731    1.9140 F   0  0  0  0  0  0  0  0  0  0  0  0
   -1.2064    1.8021    1.0767 C   0  0  0  0  0  0  0  0  0  0  0  0
   -0.5866    2.8261    1.4968 O   0  0  0  0  0  0  0  0  0  0  0  0
   -2.5731    1.8141    1.0543 C   0  0  0  0  0  0  0  0  0  0  0  0
   -3.3651    2.9080    1.6322 C   0  0  0  0  0  0  0  0  0  0  0  0
   -3.6142    3.8520    0.8215 O   0  0  0  0  0  0  0  0  0  0  0  0
   -4.4588    2.5203    2.4127 O   0  0  0  0  0  0  0  0  0  0  0  0
   -3.2346    0.8379    0.3262 C   0  0  0  0  0  0  0  0  0  0  0  0
   -2.5538    0.1708   -0.5921 N   0  0  0  0  0  0  0  0  0  0  0  0
   -3.3232   -1.0285   -1.3074 C   0  0  2  0  0  0  0  0  0  0  0  0
   -4.7112   -0.1271   -1.5371 C   0  0  0  0  0  0  0  0  0  0  0  0
   -4.2433    0.8599   -2.3965 O   0  0  0  0  0  0  0  0  0  0  0  0
   -3.7830   -1.6965    0.1464 C   0  0  0  0  0  0  0  0  0  0  0  0
   -5.0714   -1.1662    0.5572 C   0  0  0  0  0  0  0  0  0  0  0  0
   -3.7324   -3.1730   -0.1389 C   0  0  0  0  0  0  0  0  0  0  0  0
  1  2  1  0
  2  3  1  0
  3  4  2  0
  4  5  1  0
  5  6  2  0
  6  7  1  0
  7  8  2  0
  8  9  1  0
  9 10  1  0
 10 11  2  0
 11 12  1  0
 12 13  2  0
 13 14  1  0
 14 15  1  0
 14 16  2  0
 16 17  1  0
  6 18  1  0
 18 19  2  0
 18 20  1  0
 20 21  1  0
 21 22  2  0
 21 23  1  0
 20 24  2  0
 24 25  1  0
 26 25  1  1
 26 27  1  0
 27 28  1  0
 26 29  1  0
 29 30  1  0
 29 31  1  0
  8  3  1  0
 16 10  1  0
 25  5  1  0
M  END
>  <zinc_id>  (560) 
ZINC000013682481

>  <smiles>  (560) 
COc1cc2c(cc1Cc1cccc(Cl)c1F)c(=O)c(C(=O)O)cn2[C@H](CO)C(C)C

$$$$

     RDKit          3D

 11 10  0  0  0  0  0  0  0  0999 V2000
    0.5079   -0.9612    1.8242 C   0  0  0  0  0  0  0  0  0  0  0  0
    0.1512   -0.5776    0.2642 C   0  0  1  0  0  0  0  0  0  0  0  0
   -0.8152    0.6704    0.7356 C   0  0  0  0  0  0  0  0  0  0  0  0
   -2.0445    0.3575    0.0626 N   0  0  0  0  0  0  0  0  0  0  0  0
   -2.7420    1.6083   -0.1850 C   0  0  0  0  0  0  0  0  0  0  0  0
   -1.8074   -0.3704   -1.1614 C   0  0  0  0  0  0  0  0  0  0  0  0
   -2.9464   -0.4507    0.8678 C   0  0  0  0  0  0  0  0  0  0  0  0
    1.3741    0.3507    0.1566 O   0  0  0  0  0  0  0  0  0  0  0  0
    2.4079   -0.1324   -0.6408 C   0  0  0  0  0  0  0  0  0  0  0  0
    3.6581    0.5356   -0.4237 N   0  0  0  0  0  0  0  0  0  0  0  0
    2.2564   -1.0303   -1.5001 O   0  0  0  0  0  0  0  0  0  0  0  0
  2  1  1  1
  2  3  1  0
  3  4  1  0
  4  5  1  0
  4  6  1  0
  4  7  1  0
  2  8  1  0
  8  9  1  0
  9 10  1  0
  9 11  2  0
M  CHG  1   4   1
M  END
>  <zinc_id>  (561) 
ZINC000000000083

>  <smiles>  (561) 
C[C@@H](C[N+](C)(C)C)OC(N)=O

$$$$

     RDKit          3D

 28 31  0  0  0  0  0  0  0  0999 V2000
    6.1142    2.3958    0.7341 C   0  0  0  0  0  0  0  0  0  0  0  0
    5.7922    1.2922    0.2808 C   0  0  0  0  0  0  0  0  0  0  0  0
    6.7377    0.3216   -0.0304 C   0  0  0  0  0  0  0  0  0  0  0  0
    6.3291   -0.8221   -0.7047 C   0  0  0  0  0  0  0  0  0  0  0  0
    5.0353   -1.2791   -0.5930 C   0  0  0  0  0  0  0  0  0  0  0  0
    4.1008   -0.4267   -0.0412 C   0  0  0  0  0  0  0  0  0  0  0  0
    2.6908   -0.8554    0.2175 C   0  0  0  0  0  0  0  0  0  0  0  0
    1.9099    0.3748    0.2108 N   0  0  0  0  0  0  0  0  0  0  0  0
    0.9304    0.3245    1.2443 C   0  0  0  0  0  0  0  0  0  0  0  0
   -0.3150   -0.2489    0.7465 C   0  0  0  0  0  0  0  0  0  0  0  0
   -0.3782   -0.8775   -0.4807 N   0  0  0  0  0  0  0  0  0  0  0  0
   -1.7861   -0.5732   -1.1768 C   0  0  1  0  0  0  0  0  0  0  0  0
   -2.5082   -1.8499   -0.4509 C   0  0  0  0  0  0  0  0  0  0  0  0
   -2.3551   -1.9627    0.8825 C   0  0  0  0  0  0  0  0  0  0  0  0
   -2.9842   -3.0197    1.5162 C   0  0  0  0  0  0  0  0  0  0  0  0
   -4.2144   -3.3856    0.9945 C   0  0  0  0  0  0  0  0  0  0  0  0
   -4.5760   -3.0115   -0.2788 C   0  0  0  0  0  0  0  0  0  0  0  0
   -3.7590   -2.1376   -0.9851 C   0  0  0  0  0  0  0  0  0  0  0  0
   -2.3120    0.4973   -0.0448 C   0  0  0  0  0  0  0  0  0  0  0  0
   -1.7763    1.7390   -0.3778 C   0  0  0  0  0  0  0  0  0  0  0  0
   -2.4197    2.9043    0.0226 C   0  0  0  0  0  0  0  0  0  0  0  0
   -3.7886    2.9050    0.0902 C   0  0  0  0  0  0  0  0  0  0  0  0
   -4.7539    4.3643   -0.1062 Cl  0  0  0  0  0  0  0  0  0  0  0  0
   -4.4059    1.6719    0.2327 C   0  0  0  0  0  0  0  0  0  0  0  0
   -3.7022    0.4944    0.0106 C   0  0  0  0  0  0  0  0  0  0  0  0
    0.4918   -0.3897   -1.5302 C   0  0  0  0  0  0  0  0  0  0  0  0
    1.4040    0.7161   -1.0860 C   0  0  0  0  0  0  0  0  0  0  0  0
    4.4986    0.8384    0.3682 C   0  0  0  0  0  0  0  0  0  0  0  0
  1  2  1  0
  2  3  2  0
  3  4  1  0
  4  5  2  0
  5  6  1  0
  6  7  1  0
  7  8  1  0
  8  9  1  0
  9 10  1  0
 10 11  1  0
 12 11  1  1
 12 13  1  0
 13 14  2  0
 14 15  1  0
 15 16  2  0
 16 17  1  0
 17 18  2  0
 12 19  1  0
 19 20  2  0
 20 21  1  0
 21 22  2  0
 22 23  1  0
 22 24  1  0
 24 25  2  0
 11 26  1  0
 26 27  1  0
  6 28  2  0
 28  2  1  0
 27  8  1  0
 18 13  1  0
 25 19  1  0
M  END
>  <zinc_id>  (562) 
ZINC000019594557

>  <smiles>  (562) 
Cc1cccc(CN2CCN([C@@H](c3ccccc3)c3ccc(Cl)cc3)CC2)c1

$$$$

     RDKit          3D

 37 41  0  0  0  0  0  0  0  0999 V2000
   -3.7065   -1.9570    3.6581 C   0  0  0  0  0  0  0  0  0  0  0  0
   -2.6387   -1.0271    3.1876 C   0  0  0  0  0  0  0  0  0  0  0  0
   -1.6976   -0.5683    4.0961 C   0  0  0  0  0  0  0  0  0  0  0  0
   -0.7823    0.4114    3.7340 C   0  0  0  0  0  0  0  0  0  0  0  0
   -0.7420    0.8974    2.4335 C   0  0  0  0  0  0  0  0  0  0  0  0
    0.5096    1.1983    1.8045 N   0  0  0  0  0  0  0  0  0  0  0  0
    1.7592    0.8898    2.3991 C   0  0  0  0  0  0  0  0  0  0  0  0
    1.8021    0.9325    3.6650 O   0  0  0  0  0  0  0  0  0  0  0  0
    2.8740    0.2935    1.6628 C   0  0  0  0  0  0  0  0  0  0  0  0
    4.1600    0.8099    1.7630 C   0  0  0  0  0  0  0  0  0  0  0  0
    5.2120    0.1806    1.1091 C   0  0  0  0  0  0  0  0  0  0  0  0
    4.9295   -0.6172    0.0066 C   0  0  0  0  0  0  0  0  0  0  0  0
    5.9754   -1.4262   -0.6791 C   0  0  0  0  0  0  0  0  0  0  0  0
    7.0717   -0.6550   -1.1660 N   0  0  0  0  0  0  0  0  0  0  0  0
    7.5485    0.3606   -0.2729 C   0  0  0  0  0  0  0  0  0  0  0  0
    8.8478    0.9000   -0.8591 C   0  0  0  0  0  0  0  0  0  0  0  0
    9.3236    0.0225   -1.9247 N   0  0  0  0  0  0  0  0  0  0  0  0
   10.5955    0.5079   -2.3865 C   0  0  0  0  0  0  0  0  0  0  0  0
    8.3759    0.0205   -3.0334 C   0  0  0  0  0  0  0  0  0  0  0  0
    6.9586   -0.2337   -2.5338 C   0  0  0  0  0  0  0  0  0  0  0  0
    3.6515   -1.1652   -0.0036 C   0  0  0  0  0  0  0  0  0  0  0  0
    2.7603   -0.9428    1.0392 C   0  0  0  0  0  0  0  0  0  0  0  0
   -1.8757    0.6494    1.6692 C   0  0  0  0  0  0  0  0  0  0  0  0
   -2.7364   -0.4039    1.9519 C   0  0  0  0  0  0  0  0  0  0  0  0
   -3.7980   -0.7106    1.0577 N   0  0  0  0  0  0  0  0  0  0  0  0
   -4.3507    0.3954    0.3349 C   0  0  0  0  0  0  0  0  0  0  0  0
   -4.8382    1.4315    1.0272 N   0  0  0  0  0  0  0  0  0  0  0  0
   -5.4480    2.4612    0.4361 C   0  0  0  0  0  0  0  0  0  0  0  0
   -5.8807    2.2837   -0.8637 C   0  0  0  0  0  0  0  0  0  0  0  0
   -5.5187    1.1362   -1.5499 C   0  0  0  0  0  0  0  0  0  0  0  0
   -6.3027    0.7144   -2.7059 C   0  0  0  0  0  0  0  0  0  0  0  0
   -6.0612   -0.5240   -3.2754 C   0  0  0  0  0  0  0  0  0  0  0  0
   -7.0891   -1.1337   -3.9751 C   0  0  0  0  0  0  0  0  0  0  0  0
   -8.3054   -0.5201   -4.1574 C   0  0  0  0  0  0  0  0  0  0  0  0
   -8.4823    0.7375   -3.7081 N   0  0  0  0  0  0  0  0  0  0  0  0
   -7.5361    1.2948   -2.9477 C   0  0  0  0  0  0  0  0  0  0  0  0
   -4.5648    0.3608   -0.9932 N   0  0  0  0  0  0  0  0  0  0  0  0
  1  2  1  0
  2  3  2  0
  3  4  1  0
  4  5  2  0
  5  6  1  0
  6  7  1  0
  7  8  2  0
  7  9  1  0
  9 10  2  0
 10 11  1  0
 11 12  2  0
 12 13  1  0
 13 14  1  0
 14 15  1  0
 15 16  1  0
 16 17  1  0
 17 18  1  0
 17 19  1  0
 19 20  1  0
 12 21  1  0
 21 22  2  0
  5 23  1  0
 23 24  2  0
 24 25  1  0
 25 26  1  0
 26 27  2  0
 27 28  1  0
 28 29  2  0
 29 30  1  0
 30 31  1  0
 31 32  2  0
 32 33  1  0
 33 34  2  0
 34 35  1  0
 35 36  2  0
 30 37  2  0
 24  2  1  0
 37 26  1  0
 22  9  1  0
 36 31  1  0
 20 14  1  0
M  END
>  <zinc_id>  (563) 
ZINC000019632618

>  <smiles>  (563) 
Cc1ccc(NC(=O)c2ccc(CN3CCN(C)CC3)cc2)cc1Nc1nccc(-c2cccnc2)n1

$$$$

     RDKit          3D

 34 35  0  0  0  0  0  0  0  0999 V2000
   -3.4544    1.2842    0.3429 N   0  0  0  0  0  0  0  0  0  0  0  0
   -3.7604   -0.0179   -0.1670 C   0  0  0  0  0  0  0  0  0  0  0  0
   -3.0041   -0.9841    0.2639 N   0  0  0  0  0  0  0  0  0  0  0  0
   -1.5706   -0.7634    0.2632 C   0  0  0  0  0  0  0  0  0  0  0  0
   -1.2724    0.7281    0.2112 C   0  0  0  0  0  0  0  0  0  0  0  0
    0.1383    0.8734   -0.3216 C   0  0  0  0  0  0  0  0  0  0  0  0
    1.0843   -0.0033    0.4618 C   0  0  0  0  0  0  0  0  0  0  0  0
    1.3553   -1.3191   -0.2192 C   0  0  0  0  0  0  0  0  0  0  0  0
    2.6761   -1.3099   -0.9777 C   0  0  0  0  0  0  0  0  0  0  0  0
    3.3484   -0.0211   -0.8387 N   0  0  0  0  0  0  0  0  0  0  0  0
    4.1922    0.2154    0.1268 C   0  0  0  0  0  0  0  0  0  0  0  0
    4.1512    1.5755    0.5883 N   0  0  0  0  0  0  0  0  0  0  0  0
    4.1398   -0.7590    1.1803 N   0  0  0  0  0  0  0  0  0  0  0  0
    4.7633   -1.8824    0.9769 C   0  0  0  0  0  0  0  0  0  0  0  0
    4.3412   -3.1013    1.5996 N   0  0  0  0  0  0  0  0  0  0  0  0
    5.7838   -1.8722   -0.0289 N   0  0  0  0  0  0  0  0  0  0  0  0
    6.4684   -0.6193   -0.1854 C   0  0  0  0  0  0  0  0  0  0  0  0
    7.0377   -0.4442   -1.4453 C   0  0  0  0  0  0  0  0  0  0  0  0
    8.1260    0.3991   -1.6325 C   0  0  0  0  0  0  0  0  0  0  0  0
    8.4059    1.2568   -0.5771 C   0  0  0  0  0  0  0  0  0  0  0  0
    9.6360    2.4994   -0.7351 Cl  0  0  0  0  0  0  0  0  0  0  0  0
    8.1561    0.7748    0.6992 C   0  0  0  0  0  0  0  0  0  0  0  0
    7.3690   -0.3573    0.8464 C   0  0  0  0  0  0  0  0  0  0  0  0
   -5.1189   -0.2414   -0.5591 N   0  0  0  0  0  0  0  0  0  0  0  0
   -5.6662   -1.4180   -0.4778 C   0  0  0  0  0  0  0  0  0  0  0  0
   -4.8036   -2.5469   -0.4379 N   0  0  0  0  0  0  0  0  0  0  0  0
   -6.9990   -1.6023    0.0131 N   0  0  0  0  0  0  0  0  0  0  0  0
   -7.8445   -0.4538    0.1490 C   0  0  0  0  0  0  0  0  0  0  0  0
   -8.3151    0.2508   -0.9408 C   0  0  0  0  0  0  0  0  0  0  0  0
   -8.4055    1.6368   -0.9550 C   0  0  0  0  0  0  0  0  0  0  0  0
   -8.0058    2.3597    0.1621 C   0  0  0  0  0  0  0  0  0  0  0  0
   -7.2879    3.9582    0.0249 Cl  0  0  0  0  0  0  0  0  0  0  0  0
   -7.9635    1.6346    1.3469 C   0  0  0  0  0  0  0  0  0  0  0  0
   -7.7011    0.2700    1.3264 C   0  0  0  0  0  0  0  0  0  0  0  0
  1  2  1  0
  2  3  2  0
  3  4  1  0
  4  5  1  0
  5  6  1  0
  6  7  1  0
  7  8  1  0
  8  9  1  0
  9 10  1  0
 10 11  2  0
 11 12  1  0
 11 13  1  0
 13 14  2  0
 14 15  1  0
 14 16  1  0
 16 17  1  0
 17 18  2  0
 18 19  1  0
 19 20  2  0
 20 21  1  0
 20 22  1  0
 22 23  2  0
  2 24  1  0
 24 25  2  0
 25 26  1  0
 25 27  1  0
 27 28  1  0
 28 29  2  0
 29 30  1  0
 30 31  2  0
 31 32  1  0
 31 33  1  0
 33 34  2  0
 23 17  1  0
 34 28  1  0
M  END
>  <zinc_id>  (564) 
ZINC000014768621

>  <smiles>  (564) 
NC(=N/CCCCCC/N=C(N)/N=C(\N)Nc1ccc(Cl)cc1)/N=C(/N)Nc1ccc(Cl)cc1

$$$$

     RDKit          3D

 28 31  0  0  0  0  0  0  0  0999 V2000
    6.0367    1.9234   -0.9044 C   0  0  0  0  0  0  0  0  0  0  0  0
    5.7617    1.0858   -0.5568 C   0  0  0  0  0  0  0  0  0  0  0  0
    6.5740    0.3920    0.3322 C   0  0  0  0  0  0  0  0  0  0  0  0
    6.3216   -0.8909    0.7507 C   0  0  0  0  0  0  0  0  0  0  0  0
    5.1626   -1.5243    0.3574 C   0  0  0  0  0  0  0  0  0  0  0  0
    4.2065   -0.7694   -0.2862 C   0  0  0  0  0  0  0  0  0  0  0  0
    2.8262   -1.3256   -0.4388 C   0  0  0  0  0  0  0  0  0  0  0  0
    1.9419   -0.1873   -0.2570 N   0  0  0  0  0  0  0  0  0  0  0  0
    0.8762   -0.2621   -1.1710 C   0  0  0  0  0  0  0  0  0  0  0  0
   -0.4843   -0.4742   -0.6699 C   0  0  0  0  0  0  0  0  0  0  0  0
   -0.7190    0.1692    0.5275 N   0  0  0  0  0  0  0  0  0  0  0  0
   -1.9776   -0.4281    1.2698 C   0  0  2  0  0  0  0  0  0  0  0  0
   -2.4594   -1.3895    0.0530 C   0  0  0  0  0  0  0  0  0  0  0  0
   -1.9244   -2.6443    0.3513 C   0  0  0  0  0  0  0  0  0  0  0  0
   -2.6411   -3.8153    0.1844 C   0  0  0  0  0  0  0  0  0  0  0  0
   -3.9303   -3.7575   -0.3068 C   0  0  0  0  0  0  0  0  0  0  0  0
   -4.3239   -2.5392   -0.8468 C   0  0  0  0  0  0  0  0  0  0  0  0
   -3.8007   -1.4174   -0.2059 C   0  0  0  0  0  0  0  0  0  0  0  0
   -2.9248    0.8075    0.8288 C   0  0  0  0  0  0  0  0  0  0  0  0
   -2.9306    1.1848   -0.4535 C   0  0  0  0  0  0  0  0  0  0  0  0
   -3.6090    2.3491   -0.7884 C   0  0  0  0  0  0  0  0  0  0  0  0
   -3.7609    3.3071    0.1919 C   0  0  0  0  0  0  0  0  0  0  0  0
   -4.1536    4.9795   -0.1520 Cl  0  0  0  0  0  0  0  0  0  0  0  0
   -3.5065    2.9998    1.5223 C   0  0  0  0  0  0  0  0  0  0  0  0
   -3.0254    1.7407    1.8475 C   0  0  0  0  0  0  0  0  0  0  0  0
    0.2684    0.0057    1.5548 C   0  0  0  0  0  0  0  0  0  0  0  0
    1.6713   -0.0129    1.1096 C   0  0  0  0  0  0  0  0  0  0  0  0
    4.5245    0.4934   -0.7733 C   0  0  0  0  0  0  0  0  0  0  0  0
  1  2  1  0
  2  3  2  0
  3  4  1  0
  4  5  2  0
  5  6  1  0
  6  7  1  0
  7  8  1  0
  8  9  1  0
  9 10  1  0
 10 11  1  0
 12 11  1  6
 12 13  1  0
 13 14  2  0
 14 15  1  0
 15 16  2  0
 16 17  1  0
 17 18  2  0
 12 19  1  0
 19 20  2  0
 20 21  1  0
 21 22  2  0
 22 23  1  0
 22 24  1  0
 24 25  2  0
 11 26  1  0
 26 27  1  0
  6 28  2  0
 28  2  1  0
 27  8  1  0
 18 13  1  0
 25 19  1  0
M  END
>  <zinc_id>  (565) 
ZINC000019361042

>  <smiles>  (565) 
Cc1cccc(CN2CCN([C@H](c3ccccc3)c3ccc(Cl)cc3)CC2)c1

$$$$

     RDKit          3D

 11 11  0  0  0  0  0  0  0  0999 V2000
    3.3711    1.0594    0.3741 C   0  0  0  0  0  0  0  0  0  0  0  0
    2.3205    0.6877    0.8754 N   0  0  0  0  0  0  0  0  0  0  0  0
    1.9211   -0.5543   -0.0260 C   0  0  1  0  0  0  0  0  0  0  0  0
    2.8706   -1.5740    0.8667 C   0  0  0  0  0  0  0  0  0  0  0  0
    0.5949   -0.8780    0.9094 C   0  0  0  0  0  0  0  0  0  0  0  0
   -0.5388   -0.3009    0.1190 C   0  0  0  0  0  0  0  0  0  0  0  0
   -0.8068    1.0600    0.1091 C   0  0  0  0  0  0  0  0  0  0  0  0
   -2.0733    1.5684   -0.0041 C   0  0  0  0  0  0  0  0  0  0  0  0
   -3.1380    0.6834   -0.0141 C   0  0  0  0  0  0  0  0  0  0  0  0
   -2.8917   -0.6272   -0.3845 C   0  0  0  0  0  0  0  0  0  0  0  0
   -1.6296   -1.1246   -0.1268 C   0  0  0  0  0  0  0  0  0  0  0  0
  1  2  1  0
  3  2  1  1
  3  4  1  0
  3  5  1  0
  5  6  1  0
  6  7  2  0
  7  8  1  0
  8  9  2  0
  9 10  1  0
 10 11  2  0
 11  6  1  0
M  END
>  <zinc_id>  (566) 
ZINC000006021043

>  <smiles>  (566) 
CN[C@@H](C)Cc1ccccc1

$$$$

     RDKit          3D

 22 26  0  0  0  0  0  0  0  0999 V2000
   -0.1842   -2.1142   -0.9122 O   0  0  0  0  0  0  0  0  0  0  0  0
    0.1556   -1.4406   -0.4662 C   0  0  0  0  0  0  0  0  0  0  0  0
    1.6016   -1.2739   -0.2222 C   0  0  0  0  0  0  0  0  0  0  0  0
    2.4545   -2.3182   -0.5032 C   0  0  0  0  0  0  0  0  0  0  0  0
    3.7752   -2.0267   -0.7935 C   0  0  0  0  0  0  0  0  0  0  0  0
    4.2287   -0.7436   -0.5754 C   0  0  0  0  0  0  0  0  0  0  0  0
    3.4319    0.2689   -0.0655 C   0  0  0  0  0  0  0  0  0  0  0  0
    2.0607    0.0224    0.0124 C   0  0  0  0  0  0  0  0  0  0  0  0
    1.3195    0.7259    1.2522 C   0  0  1  0  0  0  0  0  0  0  0  0
    1.7881    2.2430    0.8791 C   0  0  0  0  0  0  0  0  0  0  0  0
    2.3754    2.3461   -0.4413 C   0  0  0  0  0  0  0  0  0  0  0  0
    3.7559    1.6921   -0.4151 C   0  0  0  0  0  0  0  0  0  0  0  0
   -0.1051    0.8934    0.4633 C   0  0  0  0  0  0  0  0  0  0  0  0
   -0.5673   -0.3870    0.1989 N   0  0  0  0  0  0  0  0  0  0  0  0
   -2.0590   -0.8367    0.3253 C   0  0  2  0  0  0  0  0  0  0  0  0
   -2.4923   -0.0793   -1.0690 C   0  0  0  0  0  0  0  0  0  0  0  0
   -3.9113    0.2126   -0.8700 N   0  0  0  0  0  0  0  0  0  0  0  0
   -4.4699   -0.6537    0.1642 C   0  0  0  0  0  0  0  0  0  0  0  0
   -3.9808   -0.1161    1.5048 C   0  0  0  0  0  0  0  0  0  0  0  0
   -2.5499    0.3911    1.2975 C   0  0  0  0  0  0  0  0  0  0  0  0
   -2.6721    1.6378    0.5286 C   0  0  0  0  0  0  0  0  0  0  0  0
   -3.9552    1.5568   -0.2927 C   0  0  0  0  0  0  0  0  0  0  0  0
  1  2  2  0
  2  3  1  0
  3  4  2  0
  4  5  1  0
  5  6  2  0
  6  7  1  0
  7  8  2  0
  8  9  1  0
  9 10  1  6
 10 11  1  0
 11 12  1  0
  9 13  1  0
 13 14  1  0
 15 14  1  6
 15 16  1  0
 16 17  1  0
 17 18  1  0
 18 19  1  0
 19 20  1  0
 20 21  1  0
 21 22  1  0
 14  2  1  0
 20 15  1  0
  8  3  1  0
 22 17  1  0
 12  7  1  0
M  END
>  <zinc_id>  (567) 
ZINC000006094354

>  <smiles>  (567) 
O=C1c2cccc3c2[C@@H](CCC3)CN1[C@@H]1CN2CCC1CC2

$$$$

     RDKit          3D

 18 20  0  0  0  0  0  0  0  0999 V2000
    0.3900    2.9941    0.4198 N   0  0  0  0  0  0  0  0  0  0  0  0
    0.2367    2.0768   -0.6521 C   0  0  0  0  0  0  0  0  0  0  0  0
    0.7029    2.4181   -1.7765 O   0  0  0  0  0  0  0  0  0  0  0  0
    0.0655    0.6915   -0.4202 N   0  0  0  0  0  0  0  0  0  0  0  0
   -1.3064    0.2803   -0.3718 C   0  0  0  0  0  0  0  0  0  0  0  0
   -2.1680    1.3117   -0.0153 C   0  0  0  0  0  0  0  0  0  0  0  0
   -3.3053    1.0416    0.7328 C   0  0  0  0  0  0  0  0  0  0  0  0
   -3.6212   -0.2784    1.0285 C   0  0  0  0  0  0  0  0  0  0  0  0
   -2.9802   -1.2508    0.2725 C   0  0  0  0  0  0  0  0  0  0  0  0
   -1.7428   -1.0379   -0.3130 C   0  0  0  0  0  0  0  0  0  0  0  0
   -0.9554   -2.2720   -0.4428 C   0  0  0  0  0  0  0  0  0  0  0  0
    0.3728   -2.4005   -0.4540 C   0  0  0  0  0  0  0  0  0  0  0  0
    1.4335   -1.4144   -0.2861 C   0  0  0  0  0  0  0  0  0  0  0  0
    2.5307   -1.9457    0.3753 C   0  0  0  0  0  0  0  0  0  0  0  0
    3.3857   -1.1491    1.1278 C   0  0  0  0  0  0  0  0  0  0  0  0
    3.3640    0.2230    0.9124 C   0  0  0  0  0  0  0  0  0  0  0  0
    2.3168    0.7517    0.1721 C   0  0  0  0  0  0  0  0  0  0  0  0
    1.2809   -0.0399   -0.3093 C   0  0  0  0  0  0  0  0  0  0  0  0
  1  2  1  0
  2  3  2  0
  2  4  1  0
  4  5  1  0
  5  6  2  0
  6  7  1  0
  7  8  2  0
  8  9  1  0
  9 10  2  0
 10 11  1  0
 11 12  2  0
 12 13  1  0
 13 14  2  0
 14 15  1  0
 15 16  2  0
 16 17  1  0
 17 18  2  0
 18  4  1  0
 10  5  1  0
 18 13  1  0
M  END
>  <zinc_id>  (568) 
ZINC000000004785

>  <smiles>  (568) 
NC(=O)N1c2ccccc2C=Cc2ccccc21

$$$$

     RDKit          3D

 20 19  0  0  0  0  0  0  0  0999 V2000
    1.5053    1.8842    1.5535 O   0  0  0  0  0  0  0  0  0  0  0  0
    2.3619    1.8295    0.6425 C   0  0  0  0  0  0  0  0  0  0  0  0
    3.3439    2.7943    0.5698 O   0  0  0  0  0  0  0  0  0  0  0  0
    2.3743    0.7238   -0.3336 C   0  0  0  0  0  0  0  0  0  0  0  0
    1.7675   -0.4911    0.2071 N   0  0  0  0  0  0  0  0  0  0  0  0
    0.4532   -0.5865   -0.4134 C   0  0  0  0  0  0  0  0  0  0  0  0
   -0.6553   -0.6497    0.6196 C   0  0  0  0  0  0  0  0  0  0  0  0
   -1.9027   -0.6601   -0.1010 N   0  0  0  0  0  0  0  0  0  0  0  0
   -3.0032   -1.1948    0.6558 C   0  0  0  0  0  0  0  0  0  0  0  0
   -4.1117   -1.4558   -0.3141 C   0  0  0  0  0  0  0  0  0  0  0  0
   -4.8403   -0.4863   -0.6570 O   0  0  0  0  0  0  0  0  0  0  0  0
   -4.3187   -2.7144   -0.8375 O   0  0  0  0  0  0  0  0  0  0  0  0
   -2.2024    0.5932   -0.7484 C   0  0  0  0  0  0  0  0  0  0  0  0
   -2.2211    1.7335    0.2178 C   0  0  0  0  0  0  0  0  0  0  0  0
   -1.1054    2.3083    0.4021 O   0  0  0  0  0  0  0  0  0  0  0  0
   -3.3218    2.5924    0.1362 O   0  0  0  0  0  0  0  0  0  0  0  0
    2.5394   -1.6244   -0.2539 C   0  0  0  0  0  0  0  0  0  0  0  0
    3.9797   -1.5046    0.0387 C   0  0  0  0  0  0  0  0  0  0  0  0
    4.6100   -0.4257    0.1045 O   0  0  0  0  0  0  0  0  0  0  0  0
    4.7475   -2.6658   -0.0645 O   0  0  0  0  0  0  0  0  0  0  0  0
  1  2  2  0
  2  3  1  0
  2  4  1  0
  4  5  1  0
  5  6  1  0
  6  7  1  0
  7  8  1  0
  8  9  1  0
  9 10  1  0
 10 11  2  0
 10 12  1  0
  8 13  1  0
 13 14  1  0
 14 15  2  0
 14 16  1  0
  5 17  1  0
 17 18  1  0
 18 19  2  0
 18 20  1  0
M  END
>  <zinc_id>  (569) 
ZINC000019364242

>  <smiles>  (569) 
O=C(O)CN(CCN(CC(=O)O)CC(=O)O)CC(=O)O

$$$$

     RDKit          3D

 27 26  0  0  0  0  0  0  0  0999 V2000
   -0.4267   -3.2085    0.8078 O   0  0  0  0  0  0  0  0  0  0  0  0
   -0.4037   -2.5041    1.8362 C   0  0  0  0  0  0  0  0  0  0  0  0
   -0.6819   -3.1373    3.0481 O   0  0  0  0  0  0  0  0  0  0  0  0
   -0.1959   -1.0475    1.8652 C   0  0  0  0  0  0  0  0  0  0  0  0
   -0.2600   -0.4613    0.5297 N   0  0  0  0  0  0  0  0  0  0  0  0
    0.9766   -0.6620   -0.1785 C   0  0  0  0  0  0  0  0  0  0  0  0
    1.6698    0.6243   -0.5226 C   0  0  0  0  0  0  0  0  0  0  0  0
    3.1060    0.5452   -0.4655 N   0  0  0  0  0  0  0  0  0  0  0  0
    3.5880    1.9238   -0.3854 C   0  0  0  0  0  0  0  0  0  0  0  0
    3.4947    2.4191    1.0219 C   0  0  0  0  0  0  0  0  0  0  0  0
    4.5061    2.1898    1.7500 O   0  0  0  0  0  0  0  0  0  0  0  0
    2.2549    2.5261    1.6359 O   0  0  0  0  0  0  0  0  0  0  0  0
    3.6977   -0.1166   -1.5991 C   0  0  0  0  0  0  0  0  0  0  0  0
    4.7436   -1.1057   -1.2046 C   0  0  0  0  0  0  0  0  0  0  0  0
    5.8354   -0.6272   -0.7734 O   0  0  0  0  0  0  0  0  0  0  0  0
    4.8038   -2.3280   -1.8639 O   0  0  0  0  0  0  0  0  0  0  0  0
   -1.4056   -1.0454   -0.1170 C   0  0  0  0  0  0  0  0  0  0  0  0
   -2.0225   -0.1813   -1.1718 C   0  0  0  0  0  0  0  0  0  0  0  0
   -2.8825    0.8492   -0.6558 N   0  0  0  0  0  0  0  0  0  0  0  0
   -3.6635    0.4389    0.4838 C   0  0  0  0  0  0  0  0  0  0  0  0
   -3.4863    1.3630    1.6481 C   0  0  0  0  0  0  0  0  0  0  0  0
   -3.8419    2.5784    1.5925 O   0  0  0  0  0  0  0  0  0  0  0  0
   -3.6011    0.7778    2.9137 O   0  0  0  0  0  0  0  0  0  0  0  0
   -3.7708    1.2489   -1.7432 C   0  0  0  0  0  0  0  0  0  0  0  0
   -4.0172    0.1123   -2.6851 C   0  0  0  0  0  0  0  0  0  0  0  0
   -3.1151   -0.2787   -3.4867 O   0  0  0  0  0  0  0  0  0  0  0  0
   -4.9019   -0.8931   -2.2802 O   0  0  0  0  0  0  0  0  0  0  0  0
  1  2  2  0
  2  3  1  0
  2  4  1  0
  4  5  1  0
  5  6  1  0
  6  7  1  0
  7  8  1  0
  8  9  1  0
  9 10  1  0
 10 11  2  0
 10 12  1  0
  8 13  1  0
 13 14  1  0
 14 15  2  0
 14 16  1  0
  5 17  1  0
 17 18  1  0
 18 19  1  0
 19 20  1  0
 20 21  1  0
 21 22  2  0
 21 23  1  0
 19 24  1  0
 24 25  1  0
 25 26  2  0
 25 27  1  0
M  END
>  <zinc_id>  (570) 
ZINC000019419017

>  <smiles>  (570) 
O=C(O)CN(CCN(CC(=O)O)CC(=O)O)CCN(CC(=O)O)CC(=O)O

$$$$

     RDKit          3D

 17 19  0  0  0  0  0  0  0  0999 V2000
   -3.6419    2.0357   -1.1908 Cl  0  0  0  0  0  0  0  0  0  0  0  0
   -3.2507    0.3951   -0.7327 C   0  0  0  0  0  0  0  0  0  0  0  0
   -4.2445   -0.4596   -0.2993 C   0  0  0  0  0  0  0  0  0  0  0  0
   -3.9092   -1.7549    0.0723 C   0  0  0  0  0  0  0  0  0  0  0  0
   -2.6084   -2.1874   -0.1478 C   0  0  0  0  0  0  0  0  0  0  0  0
   -1.6279   -1.2567   -0.4092 C   0  0  0  0  0  0  0  0  0  0  0  0
   -1.8991    0.0837   -0.6407 C   0  0  0  0  0  0  0  0  0  0  0  0
   -0.9650    1.1712   -0.2168 C   0  0  0  0  0  0  0  0  0  0  0  0
    0.4100    0.8596   -0.4958 N   0  0  0  0  0  0  0  0  0  0  0  0
    1.2085    2.0265   -0.2608 C   0  0  0  0  0  0  0  0  0  0  0  0
    2.2121    1.8861    0.8457 C   0  0  0  0  0  0  0  0  0  0  0  0
    3.0268    0.6934    0.5662 C   0  0  0  0  0  0  0  0  0  0  0  0
    4.5703    0.0172    0.8792 S   0  0  0  0  0  0  0  0  0  0  0  0
    4.3233   -1.5283    0.1702 C   0  0  0  0  0  0  0  0  0  0  0  0
    3.1984   -1.2531   -0.6007 C   0  0  0  0  0  0  0  0  0  0  0  0
    2.3441   -0.4091    0.0609 C   0  0  0  0  0  0  0  0  0  0  0  0
    0.8532   -0.3194    0.1862 C   0  0  0  0  0  0  0  0  0  0  0  0
  1  2  1  0
  2  3  2  0
  3  4  1  0
  4  5  2  0
  5  6  1  0
  6  7  2  0
  7  8  1  0
  8  9  1  0
  9 10  1  0
 10 11  1  0
 11 12  1  0
 12 13  1  0
 13 14  1  0
 14 15  2  0
 15 16  1  0
 16 17  1  0
  7  2  1  0
 17  9  1  0
 16 12  2  0
M  END
>  <zinc_id>  (571) 
ZINC000019594599

>  <smiles>  (571) 
Clc1ccccc1CN1CCc2sccc2C1

$$$$

     RDKit          3D

 27 29  0  0  0  0  0  0  0  0999 V2000
    6.4899    2.0755   -0.5270 O   0  0  0  0  0  0  0  0  0  0  0  0
    6.7818    1.1008   -0.4120 C   0  0  0  0  0  0  0  0  0  0  0  0
    8.0835    0.7839   -0.0131 O   0  0  0  0  0  0  0  0  0  0  0  0
    5.8034   -0.0238   -0.4014 C   0  0  0  0  0  0  0  0  0  0  0  0
    4.8471    0.1986    0.5959 O   0  0  0  0  0  0  0  0  0  0  0  0
    3.5853    0.2056    0.0093 C   0  0  0  0  0  0  0  0  0  0  0  0
    3.2411   -1.1421   -0.5889 C   0  0  0  0  0  0  0  0  0  0  0  0
    1.7993   -1.3354   -0.4449 N   0  0  0  0  0  0  0  0  0  0  0  0
    1.5038   -1.6429    0.9320 C   0  0  0  0  0  0  0  0  0  0  0  0
    0.0183   -1.6022    1.1358 C   0  0  0  0  0  0  0  0  0  0  0  0
   -0.4521   -0.2629    0.8846 N   0  0  0  0  0  0  0  0  0  0  0  0
   -2.0314   -0.5732    0.9501 C   0  0  2  0  0  0  0  0  0  0  0  0
   -1.9644   -1.5029   -0.4119 C   0  0  0  0  0  0  0  0  0  0  0  0
   -2.2114   -2.8137    0.0003 C   0  0  0  0  0  0  0  0  0  0  0  0
   -3.1121   -3.6309   -0.6795 C   0  0  0  0  0  0  0  0  0  0  0  0
   -3.8149   -3.1469   -1.7765 C   0  0  0  0  0  0  0  0  0  0  0  0
   -3.3792   -1.9713   -2.3261 C   0  0  0  0  0  0  0  0  0  0  0  0
   -2.7168   -1.1040   -1.4642 C   0  0  0  0  0  0  0  0  0  0  0  0
   -2.4018    0.8271    0.1545 C   0  0  0  0  0  0  0  0  0  0  0  0
   -1.9118    1.9485    0.8080 C   0  0  0  0  0  0  0  0  0  0  0  0
   -2.5608    3.1488    0.5431 C   0  0  0  0  0  0  0  0  0  0  0  0
   -3.7939    3.1759   -0.0583 C   0  0  0  0  0  0  0  0  0  0  0  0
   -4.4666    4.5734   -0.8533 Cl  0  0  0  0  0  0  0  0  0  0  0  0
   -4.4784    1.9727   -0.1625 C   0  0  0  0  0  0  0  0  0  0  0  0
   -3.7961    0.8098    0.0828 C   0  0  0  0  0  0  0  0  0  0  0  0
   -0.2158    0.0998   -0.4774 C   0  0  0  0  0  0  0  0  0  0  0  0
    1.1538   -0.1680   -0.9449 C   0  0  0  0  0  0  0  0  0  0  0  0
  1  2  2  0
  2  3  1  0
  2  4  1  0
  4  5  1  0
  5  6  1  0
  6  7  1  0
  7  8  1  0
  8  9  1  0
  9 10  1  0
 10 11  1  0
 12 11  1  6
 12 13  1  0
 13 14  2  0
 14 15  1  0
 15 16  2  0
 16 17  1  0
 17 18  2  0
 12 19  1  0
 19 20  2  0
 20 21  1  0
 21 22  2  0
 22 23  1  0
 22 24  1  0
 24 25  2  0
 11 26  1  0
 26 27  1  0
 27  8  1  0
 18 13  1  0
 25 19  1  0
M  END
>  <zinc_id>  (572) 
ZINC000019364230

>  <smiles>  (572) 
O=C(O)COCCN1CCN([C@H](c2ccccc2)c2ccc(Cl)cc2)CC1

$$$$

     RDKit          3D

 28 31  0  0  0  0  0  0  0  0999 V2000
    6.9182   -0.3864   -0.1997 C   0  0  0  0  0  0  0  0  0  0  0  0
    5.8859    0.4745    0.3652 N   0  0  0  0  0  0  0  0  0  0  0  0
    5.5142    1.4953   -0.5991 C   0  0  0  0  0  0  0  0  0  0  0  0
    4.1873    2.0630   -0.1342 C   0  0  0  0  0  0  0  0  0  0  0  0
    3.1011    1.1135   -0.3022 N   0  0  0  0  0  0  0  0  0  0  0  0
    2.1863    1.1173    0.8188 C   0  0  0  0  0  0  0  0  0  0  0  0
    0.8020    0.8552    0.2385 C   0  0  0  0  0  0  0  0  0  0  0  0
    0.7731   -0.5397   -0.3135 C   0  0  0  0  0  0  0  0  0  0  0  0
   -0.5533   -1.0299   -0.5805 N   0  0  0  0  0  0  0  0  0  0  0  0
   -0.8341   -2.3818   -0.2296 C   0  0  0  0  0  0  0  0  0  0  0  0
   -0.1841   -3.0328    0.8120 C   0  0  0  0  0  0  0  0  0  0  0  0
   -0.8199   -4.0070    1.5723 C   0  0  0  0  0  0  0  0  0  0  0  0
   -2.1178   -4.3539    1.2211 C   0  0  0  0  0  0  0  0  0  0  0  0
   -2.5231   -4.0408   -0.0701 C   0  0  0  0  0  0  0  0  0  0  0  0
   -1.8416   -3.1120   -0.8471 C   0  0  0  0  0  0  0  0  0  0  0  0
   -2.7323   -2.3046   -2.1818 S   0  0  0  0  0  0  0  0  0  0  0  0
   -2.5746   -0.5356   -1.9117 C   0  0  0  0  0  0  0  0  0  0  0  0
   -3.7552    0.1861   -1.7841 C   0  0  0  0  0  0  0  0  0  0  0  0
   -3.8232    1.3717   -1.0724 C   0  0  0  0  0  0  0  0  0  0  0  0
   -2.6257    1.9908   -0.7368 C   0  0  0  0  0  0  0  0  0  0  0  0
   -2.6035    3.3015   -0.0570 C   0  0  0  0  0  0  0  0  0  0  0  0
   -1.8996    4.1720   -0.8806 F   0  0  0  0  0  0  0  0  0  0  0  0
   -2.0209    3.2400    1.1944 F   0  0  0  0  0  0  0  0  0  0  0  0
   -3.8916    3.7719    0.0814 F   0  0  0  0  0  0  0  0  0  0  0  0
   -1.4656    1.2313   -0.8344 C   0  0  0  0  0  0  0  0  0  0  0  0
   -1.5296   -0.1328   -1.0912 C   0  0  0  0  0  0  0  0  0  0  0  0
    3.6958   -0.2123   -0.3910 C   0  0  0  0  0  0  0  0  0  0  0  0
    4.7318   -0.3147    0.7185 C   0  0  0  0  0  0  0  0  0  0  0  0
  1  2  1  0
  2  3  1  0
  3  4  1  0
  4  5  1  0
  5  6  1  0
  6  7  1  0
  7  8  1  0
  8  9  1  0
  9 10  1  0
 10 11  2  0
 11 12  1  0
 12 13  2  0
 13 14  1  0
 14 15  2  0
 15 16  1  0
 16 17  1  0
 17 18  2  0
 18 19  1  0
 19 20  2  0
 20 21  1  0
 21 22  1  0
 21 23  1  0
 21 24  1  0
 20 25  1  0
 25 26  2  0
  5 27  1  0
 27 28  1  0
 28  2  1  0
 26  9  1  0
 15 10  1  0
 26 17  1  0
M  END
>  <zinc_id>  (573) 
ZINC000019418959

>  <smiles>  (573) 
CN1CCN(CCCN2c3ccccc3Sc3ccc(C(F)(F)F)cc32)CC1

$$$$

     RDKit          3D

 21 22  0  0  0  0  0  0  0  0999 V2000
   -7.1220    0.7704   -1.1037 C   0  0  0  0  0  0  0  0  0  0  0  0
   -7.2096   -0.4960   -0.2788 C   0  0  0  0  0  0  0  0  0  0  0  0
   -5.8827   -0.9049    0.2994 C   0  0  0  0  0  0  0  0  0  0  0  0
   -5.0969    0.3106    0.7736 C   0  0  0  0  0  0  0  0  0  0  0  0
   -4.1881    0.6587   -0.2496 O   0  0  0  0  0  0  0  0  0  0  0  0
   -2.8481    0.2727   -0.1488 C   0  0  0  0  0  0  0  0  0  0  0  0
   -2.2700    0.0577    1.0937 C   0  0  0  0  0  0  0  0  0  0  0  0
   -0.8974    0.2137    1.2344 C   0  0  0  0  0  0  0  0  0  0  0  0
   -0.1416    0.5733    0.1307 C   0  0  0  0  0  0  0  0  0  0  0  0
    1.0973    1.1421    0.3382 O   0  0  0  0  0  0  0  0  0  0  0  0
    2.0830    0.4617    1.0742 C   0  0  0  0  0  0  0  0  0  0  0  0
    2.1192   -1.0164    0.8138 C   0  0  0  0  0  0  0  0  0  0  0  0
    2.6949   -1.3888   -0.5170 C   0  0  0  0  0  0  0  0  0  0  0  0
    3.9999   -0.8733   -0.7744 N   0  0  0  0  0  0  0  0  0  0  0  0
    4.1245    0.5447   -0.7276 C   0  0  0  0  0  0  0  0  0  0  0  0
    5.5257    0.9542   -0.3712 C   0  0  0  0  0  0  0  0  0  0  0  0
    5.8079    0.4163    0.8700 O   0  0  0  0  0  0  0  0  0  0  0  0
    5.8187   -0.9623    0.8912 C   0  0  0  0  0  0  0  0  0  0  0  0
    5.0812   -1.6168   -0.2250 C   0  0  0  0  0  0  0  0  0  0  0  0
   -0.6704    0.5697   -1.1445 C   0  0  0  0  0  0  0  0  0  0  0  0
   -2.0254    0.3128   -1.2647 C   0  0  0  0  0  0  0  0  0  0  0  0
  1  2  1  0
  2  3  1  0
  3  4  1  0
  4  5  1  0
  5  6  1  0
  6  7  2  0
  7  8  1  0
  8  9  2  0
  9 10  1  0
 10 11  1  0
 11 12  1  0
 12 13  1  0
 13 14  1  0
 14 15  1  0
 15 16  1  0
 16 17  1  0
 17 18  1  0
 18 19  1  0
  9 20  1  0
 20 21  2  0
 21  6  1  0
 19 14  1  0
M  END
>  <zinc_id>  (574) 
ZINC000019594594

>  <smiles>  (574) 
CCCCOc1ccc(OCCCN2CCOCC2)cc1

$$$$

     RDKit          3D

 42 47  0  0  0  0  0  0  0  0999 V2000
    0.1809   -4.6824    1.1029 C   0  0  0  0  0  0  0  0  0  0  0  0
    0.7419   -3.5760    1.9542 C   0  0  0  0  0  0  0  0  0  0  0  0
    0.4648   -2.2921    1.4478 O   0  0  0  0  0  0  0  0  0  0  0  0
   -0.1839   -2.0683    0.2457 C   0  0  0  0  0  0  0  0  0  0  0  0
   -0.0919   -2.7713   -0.9100 N   0  0  0  0  0  0  0  0  0  0  0  0
   -0.9672   -2.2513   -1.8040 C   0  0  0  0  0  0  0  0  0  0  0  0
   -1.1494   -2.3871   -3.1751 C   0  0  0  0  0  0  0  0  0  0  0  0
   -1.9812   -1.4518   -3.7786 C   0  0  0  0  0  0  0  0  0  0  0  0
   -2.9704   -0.7905   -3.0605 C   0  0  0  0  0  0  0  0  0  0  0  0
   -2.7750   -0.6948   -1.6920 C   0  0  0  0  0  0  0  0  0  0  0  0
   -3.6497    0.0929   -0.8234 C   0  0  0  0  0  0  0  0  0  0  0  0
   -4.4552    0.8761   -1.4119 O   0  0  0  0  0  0  0  0  0  0  0  0
   -4.1087   -0.4255    0.3912 O   0  0  0  0  0  0  0  0  0  0  0  0
   -4.9450    0.2832    1.2699 C   0  0  0  0  0  0  0  0  0  0  0  0
   -6.0309    1.0190    0.5633 C   0  0  0  0  0  0  0  0  0  0  0  0
   -7.2510    0.5175    0.4743 O   0  0  0  0  0  0  0  0  0  0  0  0
   -8.0344    1.4899    0.0759 C   0  0  0  0  0  0  0  0  0  0  0  0
   -9.2868    1.3391   -0.0095 O   0  0  0  0  0  0  0  0  0  0  0  0
   -7.3187    2.5849   -0.1046 O   0  0  0  0  0  0  0  0  0  0  0  0
   -6.2378    2.3918    0.6323 C   0  0  0  0  0  0  0  0  0  0  0  0
   -5.2744    3.4461    1.0728 C   0  0  0  0  0  0  0  0  0  0  0  0
   -1.7035   -1.3279   -1.0762 C   0  0  0  0  0  0  0  0  0  0  0  0
   -1.0913   -1.0718    0.1030 N   0  0  0  0  0  0  0  0  0  0  0  0
   -1.0878    0.2214    0.7825 C   0  0  0  0  0  0  0  0  0  0  0  0
    0.2504    0.8761    0.6942 C   0  0  0  0  0  0  0  0  0  0  0  0
    1.0837    0.8923    1.8060 C   0  0  0  0  0  0  0  0  0  0  0  0
    2.4591    0.7810    1.6433 C   0  0  0  0  0  0  0  0  0  0  0  0
    3.0316    0.5122    0.4057 C   0  0  0  0  0  0  0  0  0  0  0  0
    4.1165   -0.4695    0.2755 C   0  0  0  0  0  0  0  0  0  0  0  0
    3.7941   -1.8202    0.2514 C   0  0  0  0  0  0  0  0  0  0  0  0
    4.7125   -2.7563   -0.1609 C   0  0  0  0  0  0  0  0  0  0  0  0
    6.0344   -2.3622   -0.2066 C   0  0  0  0  0  0  0  0  0  0  0  0
    6.4012   -1.0997    0.2211 C   0  0  0  0  0  0  0  0  0  0  0  0
    5.4404   -0.1324    0.4028 C   0  0  0  0  0  0  0  0  0  0  0  0
    5.7816    1.2793    0.2294 C   0  0  0  0  0  0  0  0  0  0  0  0
    6.0440    2.1320    1.2437 N   0  0  0  0  0  0  0  0  0  0  0  0
    6.4963    3.2201    0.6825 O   0  0  0  0  0  0  0  0  0  0  0  0
    6.7616    2.9940   -0.5879 C   0  0  0  0  0  0  0  0  0  0  0  0
    7.5055    3.7174   -1.3028 O   0  0  0  0  0  0  0  0  0  0  0  0
    6.1597    1.8372   -0.9297 N   0  0  0  0  0  0  0  0  0  0  0  0
    2.2517    0.8761   -0.6859 C   0  0  0  0  0  0  0  0  0  0  0  0
    0.8825    1.0515   -0.5314 C   0  0  0  0  0  0  0  0  0  0  0  0
  1  2  1  0
  2  3  1  0
  3  4  1  0
  4  5  2  0
  5  6  1  0
  6  7  2  0
  7  8  1  0
  8  9  2  0
  9 10  1  0
 10 11  1  0
 11 12  2  0
 11 13  1  0
 13 14  1  0
 14 15  1  0
 15 16  1  0
 16 17  1  0
 17 18  2  0
 17 19  1  0
 19 20  1  0
 20 21  1  0
 10 22  2  0
 22 23  1  0
 23 24  1  0
 24 25  1  0
 25 26  2  0
 26 27  1  0
 27 28  2  0
 28 29  1  0
 29 30  2  0
 30 31  1  0
 31 32  2  0
 32 33  1  0
 33 34  2  0
 34 35  1  0
 35 36  2  0
 36 37  1  0
 37 38  1  0
 38 39  2  0
 38 40  1  0
 28 41  1  0
 41 42  2  0
 23  4  1  0
 42 25  1  0
 22  6  1  0
 34 29  1  0
 40 35  1  0
 20 15  2  0
M  END
>  <zinc_id>  (575) 
ZINC000014210642

>  <smiles>  (575) 
CCOc1nc2cccc(C(=O)OCc3oc(=O)oc3C)c2n1Cc1ccc(-c2ccccc2-c2noc(=O)[nH]2)cc1

$$$$

     RDKit          3D

 23 24  0  0  0  0  0  0  0  0999 V2000
   -1.4946    0.0121    3.3974 C   0  0  0  0  0  0  0  0  0  0  0  0
   -1.4274   -0.2357    2.6081 C   0  0  0  0  0  0  0  0  0  0  0  0
   -0.2303    0.1839    1.8633 C   0  0  0  0  0  0  0  0  0  0  0  0
    0.6054    0.8287    2.4637 O   0  0  0  0  0  0  0  0  0  0  0  0
   -0.0915    0.1490    0.3754 C   0  0  0  0  0  0  0  0  0  0  0  0
    1.3879   -0.0347    0.1077 C   0  0  0  0  0  0  0  0  0  0  0  0
    1.6418   -1.6702    0.1455 C   0  0  1  0  0  0  0  0  0  0  0  0
    1.6591   -1.7805   -1.5089 C   0  0  0  0  0  0  0  0  0  0  0  0
    3.2189   -1.4878    0.2090 N   0  0  0  0  0  0  0  0  0  0  0  0
    3.5435   -0.4905   -0.7766 C   0  0  0  0  0  0  0  0  0  0  0  0
    3.6775   -2.7621   -0.3456 C   0  0  0  0  0  0  0  0  0  0  0  0
   -0.3964    1.5088   -0.1774 C   0  0  0  0  0  0  0  0  0  0  0  0
   -0.2012    1.7298   -1.5252 C   0  0  0  0  0  0  0  0  0  0  0  0
   -0.0248    2.9938   -2.0654 C   0  0  0  0  0  0  0  0  0  0  0  0
    0.5595    3.9268   -1.2268 C   0  0  0  0  0  0  0  0  0  0  0  0
    0.2801    3.8185    0.1259 C   0  0  0  0  0  0  0  0  0  0  0  0
   -0.1066    2.5893    0.6458 C   0  0  0  0  0  0  0  0  0  0  0  0
   -0.9225   -0.8898   -0.2556 C   0  0  0  0  0  0  0  0  0  0  0  0
   -1.5428   -1.8990    0.4655 C   0  0  0  0  0  0  0  0  0  0  0  0
   -2.7569   -2.4471    0.0771 C   0  0  0  0  0  0  0  0  0  0  0  0
   -3.2792   -2.1455   -1.1494 C   0  0  0  0  0  0  0  0  0  0  0  0
   -2.6395   -1.2251   -1.9343 C   0  0  0  0  0  0  0  0  0  0  0  0
   -1.4600   -0.6728   -1.5193 C   0  0  0  0  0  0  0  0  0  0  0  0
  1  2  1  0
  2  3  1  0
  3  4  2  0
  3  5  1  0
  5  6  1  0
  7  6  1  6
  7  8  1  0
  7  9  1  0
  9 10  1  0
  9 11  1  0
  5 12  1  0
 12 13  2  0
 13 14  1  0
 14 15  2  0
 15 16  1  0
 16 17  2  0
  5 18  1  0
 18 19  2  0
 19 20  1  0
 20 21  2  0
 21 22  1  0
 22 23  2  0
 17 12  1  0
 23 18  1  0
M  END
>  <zinc_id>  (576) 
ZINC000001530706

>  <smiles>  (576) 
CCC(=O)C(C[C@@H](C)N(C)C)(c1ccccc1)c1ccccc1

$$$$

     RDKit          3D

 10 10  0  0  0  0  0  0  0  0999 V2000
    1.8956    1.5938    0.5910 C   0  0  0  0  0  0  0  0  0  0  0  0
    0.9453    0.6378    0.0855 N   0  0  0  0  0  0  0  0  0  0  0  0
    1.0862   -0.7530   -0.2075 C   0  0  0  0  0  0  0  0  0  0  0  0
    2.2154   -1.3210   -0.1978 O   0  0  0  0  0  0  0  0  0  0  0  0
   -0.1497   -1.2779   -0.6023 O   0  0  0  0  0  0  0  0  0  0  0  0
   -1.0932   -0.4312    0.0507 C   0  0  0  0  0  0  0  0  0  0  0  0
   -1.0475   -0.8256    1.5125 C   0  0  0  0  0  0  0  0  0  0  0  0
   -2.4600   -0.5097   -0.5495 C   0  0  0  0  0  0  0  0  0  0  0  0
   -0.4438    0.9024   -0.1509 C   0  0  0  0  0  0  0  0  0  0  0  0
   -0.9484    1.9843   -0.5318 O   0  0  0  0  0  0  0  0  0  0  0  0
  1  2  1  0
  2  3  1  0
  3  4  2  0
  3  5  1  0
  5  6  1  0
  6  7  1  0
  6  8  1  0
  6  9  1  0
  9 10  2  0
  9  2  1  0
M  END
>  <zinc_id>  (577) 
ZINC000001530710

>  <smiles>  (577) 
CN1C(=O)OC(C)(C)C1=O

$$$$

     RDKit          3D

 23 24  0  0  0  0  0  0  0  0999 V2000
    6.7845   -0.1423   -0.3466 C   0  0  0  0  0  0  0  0  0  0  0  0
    5.6766   -0.1134    0.6448 C   0  0  0  0  0  0  0  0  0  0  0  0
    5.6265    1.1202    1.4795 C   0  0  0  0  0  0  0  0  0  0  0  0
    4.2958   -0.0618   -0.3041 C   0  0  2  0  0  0  0  0  0  0  0  0
    4.5636    1.4734   -0.7063 N   0  0  0  0  0  0  0  0  0  0  0  0
    3.3552    0.2756    1.0001 C   0  0  0  0  0  0  0  0  0  0  0  0
    2.9707    1.4250    1.1449 O   0  0  0  0  0  0  0  0  0  0  0  0
    2.3814   -0.7329    1.0349 O   0  0  0  0  0  0  0  0  0  0  0  0
    1.1662   -0.5328    1.7087 C   0  0  0  0  0  0  0  0  0  0  0  0
    0.0364   -0.1152    0.8144 C   0  0  0  0  0  0  0  0  0  0  0  0
    0.4014    0.9254   -0.0454 O   0  0  0  0  0  0  0  0  0  0  0  0
   -0.1268    0.7266   -1.3252 C   0  0  0  0  0  0  0  0  0  0  0  0
   -1.2290   -0.2190   -1.2076 N   0  0  0  0  0  0  0  0  0  0  0  0
   -1.1854   -1.5624   -1.2254 C   0  0  0  0  0  0  0  0  0  0  0  0
   -2.2447   -2.0112   -0.5153 N   0  0  0  0  0  0  0  0  0  0  0  0
   -3.0994   -0.9981   -0.3394 C   0  0  0  0  0  0  0  0  0  0  0  0
   -2.5109    0.0981   -0.9360 C   0  0  0  0  0  0  0  0  0  0  0  0
   -3.2459    1.2080   -1.1670 N   0  0  0  0  0  0  0  0  0  0  0  0
   -4.4806    1.2651   -0.6204 C   0  0  0  0  0  0  0  0  0  0  0  0
   -5.4459    2.2022   -1.0941 N   0  0  0  0  0  0  0  0  0  0  0  0
   -4.8482    0.3873    0.3247 N   0  0  0  0  0  0  0  0  0  0  0  0
   -4.2675   -0.8268    0.3924 C   0  0  0  0  0  0  0  0  0  0  0  0
   -4.5740   -1.6410    1.2882 O   0  0  0  0  0  0  0  0  0  0  0  0
  1  2  1  0
  2  3  1  0
  4  2  1  1
  4  5  1  0
  4  6  1  0
  6  7  2  0
  6  8  1  0
  8  9  1  0
  9 10  1  0
 10 11  1  0
 11 12  1  0
 12 13  1  0
 13 14  1  0
 14 15  2  0
 15 16  1  0
 16 17  2  0
 17 18  1  0
 18 19  2  0
 19 20  1  0
 19 21  1  0
 21 22  1  0
 22 23  2  0
 17 13  1  0
 22 16  1  0
M  END
>  <zinc_id>  (578) 
ZINC000001530713

>  <smiles>  (578) 
CC(C)[C@H](N)C(=O)OCCOCn1cnc2c(=O)[nH]c(N)nc21

$$$$

     RDKit          3D

 20 20  0  0  0  0  0  0  0  0999 V2000
    2.9248   -2.4143   -1.0350 C   0  0  0  0  0  0  0  0  0  0  0  0
    4.0436   -1.7395   -0.2826 C   0  0  0  0  0  0  0  0  0  0  0  0
    3.9486   -0.2987   -0.2955 N   0  0  0  0  0  0  0  0  0  0  0  0
    5.2122    0.3513   -0.5450 C   0  0  0  0  0  0  0  0  0  0  0  0
    5.1823    1.7642    0.0277 C   0  0  0  0  0  0  0  0  0  0  0  0
    3.3912    0.2047    0.9560 C   0  0  0  0  0  0  0  0  0  0  0  0
    2.0829   -0.4980    1.1532 C   0  0  0  0  0  0  0  0  0  0  0  0
    0.9391    0.4094    1.0871 N   0  0  0  0  0  0  0  0  0  0  0  0
    0.1518    0.5357   -0.0890 C   0  0  0  0  0  0  0  0  0  0  0  0
    0.7840    0.5086   -1.1749 O   0  0  0  0  0  0  0  0  0  0  0  0
   -1.2864    0.2492   -0.1323 C   0  0  0  0  0  0  0  0  0  0  0  0
   -1.7709   -1.0026   -0.4944 C   0  0  0  0  0  0  0  0  0  0  0  0
   -3.0924   -1.3458   -0.2348 C   0  0  0  0  0  0  0  0  0  0  0  0
   -3.8635   -2.6885   -1.0761 Cl  0  0  0  0  0  0  0  0  0  0  0  0
   -3.9339   -0.5036    0.4819 C   0  0  0  0  0  0  0  0  0  0  0  0
   -5.1840   -0.9595    1.0033 N   0  0  0  0  0  0  0  0  0  0  0  0
   -3.4786    0.7665    0.7488 C   0  0  0  0  0  0  0  0  0  0  0  0
   -2.2017    1.1285    0.4111 C   0  0  0  0  0  0  0  0  0  0  0  0
   -1.8981    2.4889    0.2958 O   0  0  0  0  0  0  0  0  0  0  0  0
   -1.9510    3.0436   -1.0058 C   0  0  0  0  0  0  0  0  0  0  0  0
  1  2  1  0
  2  3  1  0
  3  4  1  0
  4  5  1  0
  3  6  1  0
  6  7  1  0
  7  8  1  0
  8  9  1  0
  9 10  2  0
  9 11  1  0
 11 12  2  0
 12 13  1  0
 13 14  1  0
 13 15  2  0
 15 16  1  0
 15 17  1  0
 17 18  2  0
 18 19  1  0
 19 20  1  0
 18 11  1  0
M  END
>  <zinc_id>  (579) 
ZINC000001530716

>  <smiles>  (579) 
CCN(CC)CCNC(=O)c1cc(Cl)c(N)cc1OC

$$$$

     RDKit          3D

 28 31  0  0  0  0  0  0  0  0999 V2000
    5.5977    0.1358    0.9403 O   0  0  0  0  0  0  0  0  0  0  0  0
    5.3830   -0.9120    0.2682 C   0  0  0  0  0  0  0  0  0  0  0  0
    5.9389   -2.1087    0.7156 O   0  0  0  0  0  0  0  0  0  0  0  0
    4.1013   -0.9944   -0.4437 C   0  0  0  0  0  0  0  0  0  0  0  0
    3.5822    0.0422   -1.1786 C   0  0  0  0  0  0  0  0  0  0  0  0
    2.2118    0.1605   -1.3783 C   0  0  0  0  0  0  0  0  0  0  0  0
    1.3768   -0.5711   -0.5462 C   0  0  0  0  0  0  0  0  0  0  0  0
    0.0397   -0.2227   -0.2691 N   0  0  0  0  0  0  0  0  0  0  0  0
   -0.9435   -1.1094   -0.2617 N   0  0  0  0  0  0  0  0  0  0  0  0
   -2.0796   -0.5624    0.2040 C   0  0  0  0  0  0  0  0  0  0  0  0
   -3.3711   -1.2519    0.0976 C   0  0  0  0  0  0  0  0  0  0  0  0
   -4.0349   -1.3472   -1.1159 C   0  0  0  0  0  0  0  0  0  0  0  0
   -4.9584   -2.3414   -1.3852 C   0  0  0  0  0  0  0  0  0  0  0  0
   -4.8974   -3.4918   -0.6115 C   0  0  0  0  0  0  0  0  0  0  0  0
   -4.4520   -3.3369    0.6917 C   0  0  0  0  0  0  0  0  0  0  0  0
   -3.6552   -2.2551    1.0164 C   0  0  0  0  0  0  0  0  0  0  0  0
   -3.2039   -2.1252    2.3249 O   0  0  0  0  0  0  0  0  0  0  0  0
   -1.8115    0.7332    0.3802 N   0  0  0  0  0  0  0  0  0  0  0  0
   -0.4766    0.9221    0.2395 C   0  0  0  0  0  0  0  0  0  0  0  0
    0.1246    2.2255   -0.0645 C   0  0  0  0  0  0  0  0  0  0  0  0
    0.0325    2.7644   -1.3416 C   0  0  0  0  0  0  0  0  0  0  0  0
   -0.1648    4.1183   -1.5559 C   0  0  0  0  0  0  0  0  0  0  0  0
   -0.2207    4.9926   -0.4778 C   0  0  0  0  0  0  0  0  0  0  0  0
    0.2914    4.4931    0.7127 C   0  0  0  0  0  0  0  0  0  0  0  0
    0.3730    3.1286    0.9616 C   0  0  0  0  0  0  0  0  0  0  0  0
    0.1486    2.7152    2.2756 O   0  0  0  0  0  0  0  0  0  0  0  0
    1.8566   -1.8046   -0.1234 C   0  0  0  0  0  0  0  0  0  0  0  0
    3.2117   -1.9968   -0.0750 C   0  0  0  0  0  0  0  0  0  0  0  0
  1  2  2  0
  2  3  1  0
  2  4  1  0
  4  5  2  0
  5  6  1  0
  6  7  2  0
  7  8  1  0
  8  9  1  0
  9 10  2  0
 10 11  1  0
 11 12  2  0
 12 13  1  0
 13 14  2  0
 14 15  1  0
 15 16  2  0
 16 17  1  0
 10 18  1  0
 18 19  2  0
 19 20  1  0
 20 21  2  0
 21 22  1  0
 22 23  2  0
 23 24  1  0
 24 25  2  0
 25 26  1  0
  7 27  1  0
 27 28  2  0
 28  4  1  0
 19  8  1  0
 25 20  1  0
 16 11  1  0
M  END
>  <zinc_id>  (580) 
ZINC000001481815

>  <smiles>  (580) 
O=C(O)c1ccc(-n2nc(-c3ccccc3O)nc2-c2ccccc2O)cc1

$$$$

     RDKit          3D

 16 19  0  0  0  0  0  0  0  0999 V2000
    4.0094    0.1910    0.0510 C   0  0  0  0  0  0  0  0  0  0  0  0
    3.7757   -1.0197    0.6593 C   0  0  0  0  0  0  0  0  0  0  0  0
    2.5529   -1.5483    0.4141 N   0  0  0  0  0  0  0  0  0  0  0  0
    1.5055   -0.7354    0.1911 C   0  0  0  0  0  0  0  0  0  0  0  0
    0.2059   -1.1603    0.3579 C   0  0  0  0  0  0  0  0  0  0  0  0
   -0.8898   -0.3348    0.0717 C   0  0  0  0  0  0  0  0  0  0  0  0
   -0.5719    0.7090   -0.6912 C   0  0  0  0  0  0  0  0  0  0  0  0
    0.6880    1.2408   -0.7855 C   0  0  0  0  0  0  0  0  0  0  0  0
    1.7485    0.5705   -0.1863 C   0  0  0  0  0  0  0  0  0  0  0  0
    3.0211    0.8769   -0.5408 N   0  0  0  0  0  0  0  0  0  0  0  0
   -1.9644    1.4308   -1.0005 C   0  0  1  0  0  0  0  0  0  0  0  0
   -2.6221    0.0839   -1.5959 C   0  0  0  0  0  0  0  0  0  0  0  0
   -2.0822   -1.1197   -0.6646 C   0  0  2  0  0  0  0  0  0  0  0  0
   -3.1445   -0.8824    0.5621 C   0  0  0  0  0  0  0  0  0  0  0  0
   -3.6854    0.4212    0.4799 N   0  0  0  0  0  0  0  0  0  0  0  0
   -2.5468    1.2764    0.5223 C   0  0  0  0  0  0  0  0  0  0  0  0
  1  2  2  0
  2  3  1  0
  3  4  2  0
  4  5  1  0
  5  6  2  0
  6  7  1  0
  7  8  2  0
  8  9  1  0
  9 10  2  0
 11  7  1  1
 11 12  1  0
 12 13  1  0
 13 14  1  1
 14 15  1  0
 15 16  1  0
 10  1  1  0
 16 11  1  0
  9  4  1  0
 13  6  1  0
M  END
>  <zinc_id>  (581) 
ZINC000001481833

>  <smiles>  (581) 
c1cnc2cc3c(cc2n1)[C@H]1CNC[C@@H]3C1

$$$$

     RDKit          3D

 11 11  0  0  0  0  0  0  0  0999 V2000
   -2.8409    0.7233   -0.5307 C   0  0  0  0  0  0  0  0  0  0  0  0
   -2.5332    0.3036    0.7007 N   0  0  0  0  0  0  0  0  0  0  0  0
   -1.7042   -1.0504    0.5073 C   0  0  1  0  0  0  0  0  0  0  0  0
   -2.7915   -1.6148   -0.6267 C   0  0  0  0  0  0  0  0  0  0  0  0
   -0.7479   -0.3629   -0.6753 C   0  0  0  0  0  0  0  0  0  0  0  0
    0.3031    0.3602    0.1637 C   0  0  0  0  0  0  0  0  0  0  0  0
    1.0655    1.2514   -0.7401 C   0  0  0  0  0  0  0  0  0  0  0  0
    2.4997    1.4647   -0.3977 C   0  0  0  0  0  0  0  0  0  0  0  0
    3.1487    0.1003   -0.2756 C   0  0  0  0  0  0  0  0  0  0  0  0
    2.5367   -0.5095    0.9680 C   0  0  0  0  0  0  0  0  0  0  0  0
    1.0640   -0.6660    0.9066 C   0  0  0  0  0  0  0  0  0  0  0  0
  1  2  1  0
  3  2  1  1
  3  4  1  0
  3  5  1  0
  5  6  1  0
  6  7  1  0
  7  8  1  0
  8  9  1  0
  9 10  1  0
 10 11  1  0
 11  6  1  0
M  END
>  <zinc_id>  (582) 
ZINC000001481910

>  <smiles>  (582) 
CN[C@@H](C)CC1CCCCC1

$$$$

     RDKit          3D

 31 35  0  0  0  0  0  0  0  0999 V2000
   -2.1402   -2.5265   -0.7943 C   0  0  0  0  0  0  0  0  0  0  0  0
   -2.9743   -1.6046   -0.4680 C   0  0  0  0  0  0  0  0  0  0  0  0
   -4.2497   -1.8525   -0.0861 N   0  0  0  0  0  0  0  0  0  0  0  0
   -5.1062   -0.8629    0.2303 C   0  0  0  0  0  0  0  0  0  0  0  0
   -4.7600    0.4360    0.2624 N   0  0  0  0  0  0  0  0  0  0  0  0
   -3.5599    0.7305   -0.2986 C   0  0  0  0  0  0  0  0  0  0  0  0
   -3.2836    1.9410   -0.5264 O   0  0  0  0  0  0  0  0  0  0  0  0
   -2.6846   -0.2674   -0.7153 C   0  0  0  0  0  0  0  0  0  0  0  0
   -1.2869    0.0405   -1.1084 C   0  0  0  0  0  0  0  0  0  0  0  0
   -0.5998    0.6542    0.1060 C   0  0  0  0  0  0  0  0  0  0  0  0
    0.1306    1.8146   -0.3906 N   0  0  0  0  0  0  0  0  0  0  0  0
    1.0716    2.3313    0.5660 C   0  0  0  0  0  0  0  0  0  0  0  0
    2.2872    1.4572    0.7395 C   0  0  0  0  0  0  0  0  0  0  0  0
    2.0848    0.2474   -0.1481 C   0  0  0  0  0  0  0  0  0  0  0  0
    3.2726   -0.6512   -0.0569 C   0  0  0  0  0  0  0  0  0  0  0  0
    3.3938   -1.7996   -0.7588 N   0  0  0  0  0  0  0  0  0  0  0  0
    4.6506   -2.1317   -0.8014 O   0  0  0  0  0  0  0  0  0  0  0  0
    5.4198   -1.1683   -0.3856 C   0  0  0  0  0  0  0  0  0  0  0  0
    6.7295   -0.7904   -0.6434 C   0  0  0  0  0  0  0  0  0  0  0  0
    7.1820    0.4431   -0.1990 C   0  0  0  0  0  0  0  0  0  0  0  0
    8.4624    0.7969   -0.3994 F   0  0  0  0  0  0  0  0  0  0  0  0
    6.4332    1.0865    0.7691 C   0  0  0  0  0  0  0  0  0  0  0  0
    5.0775    0.8484    0.8534 C   0  0  0  0  0  0  0  0  0  0  0  0
    4.5686   -0.2559    0.2176 C   0  0  0  0  0  0  0  0  0  0  0  0
    1.9779    0.7486   -1.5720 C   0  0  0  0  0  0  0  0  0  0  0  0
    0.7043    1.5697   -1.6911 C   0  0  0  0  0  0  0  0  0  0  0  0
   -5.8563    1.3198   -0.1527 C   0  0  0  0  0  0  0  0  0  0  0  0
   -7.0972    0.5348    0.2798 C   0  0  0  0  0  0  0  0  0  0  0  0
   -6.7870    0.1517    1.6881 C   0  0  0  0  0  0  0  0  0  0  0  0
   -5.9667   -1.3180    1.5719 C   0  0  1  0  0  0  0  0  0  0  0  0
   -7.0941   -1.9233    0.6929 O   0  0  0  0  0  0  0  0  0  0  0  0
  1  2  1  0
  2  3  1  0
  3  4  2  0
  4  5  1  0
  5  6  1  0
  6  7  2  0
  6  8  1  0
  8  9  1  0
  9 10  1  0
 10 11  1  0
 11 12  1  0
 12 13  1  0
 13 14  1  0
 14 15  1  0
 15 16  2  0
 16 17  1  0
 17 18  1  0
 18 19  2  0
 19 20  1  0
 20 21  1  0
 20 22  2  0
 22 23  1  0
 23 24  2  0
 14 25  1  0
 25 26  1  0
  5 27  1  0
 27 28  1  0
 28 29  1  0
 29 30  1  0
 30 31  1  6
  8  2  2  0
 26 11  1  0
 30  4  1  0
 24 15  1  0
 24 18  1  0
M  END
>  <zinc_id>  (583) 
ZINC000001481956

>  <smiles>  (583) 
Cc1nc2n(c(=O)c1CCN1CCC(c3noc4cc(F)ccc34)CC1)CCC[C@H]2O

$$$$

     RDKit          3D

 21 23  0  0  0  0  0  0  0  0999 V2000
   -2.1763    4.0800    0.4215 C   0  0  0  0  0  0  0  0  0  0  0  0
   -2.6653    2.8159    0.3275 N   0  0  0  0  0  0  0  0  0  0  0  0
   -2.8276    2.5150   -1.0711 C   0  0  0  0  0  0  0  0  0  0  0  0
   -2.3346    1.1541   -1.4569 C   0  0  0  0  0  0  0  0  0  0  0  0
   -1.7461    0.4899   -0.0278 C   0  0  2  0  0  0  0  0  0  0  0  0
   -0.2718    0.5453   -0.5705 O   0  0  0  0  0  0  0  0  0  0  0  0
    0.6611    0.2042    0.4106 C   0  0  0  0  0  0  0  0  0  0  0  0
    0.4148    0.2573    1.7540 C   0  0  0  0  0  0  0  0  0  0  0  0
    1.5141    0.2619    2.6047 C   0  0  0  0  0  0  0  0  0  0  0  0
    2.8067    0.2016    2.1240 C   0  0  0  0  0  0  0  0  0  0  0  0
    3.0290   -0.0201    0.7770 C   0  0  0  0  0  0  0  0  0  0  0  0
    4.2982   -0.1358    0.2396 C   0  0  0  0  0  0  0  0  0  0  0  0
    4.4211   -0.1526   -1.1338 C   0  0  0  0  0  0  0  0  0  0  0  0
    3.3774   -0.5957   -1.9199 C   0  0  0  0  0  0  0  0  0  0  0  0
    2.1215   -0.5502   -1.3309 C   0  0  0  0  0  0  0  0  0  0  0  0
    1.9077   -0.1345   -0.0356 C   0  0  0  0  0  0  0  0  0  0  0  0
   -1.9571   -1.0422   -0.6179 C   0  0  0  0  0  0  0  0  0  0  0  0
   -3.2367   -1.4900   -0.7783 C   0  0  0  0  0  0  0  0  0  0  0  0
   -3.5796   -2.5654   -0.0374 C   0  0  0  0  0  0  0  0  0  0  0  0
   -2.5478   -3.4567    0.1696 C   0  0  0  0  0  0  0  0  0  0  0  0
   -1.2086   -2.3822    0.1513 S   0  0  0  0  0  0  0  0  0  0  0  0
  1  2  1  0
  2  3  1  0
  3  4  1  0
  5  4  1  6
  5  6  1  0
  6  7  1  0
  7  8  2  0
  8  9  1  0
  9 10  2  0
 10 11  1  0
 11 12  2  0
 12 13  1  0
 13 14  2  0
 14 15  1  0
 15 16  2  0
  5 17  1  0
 17 18  2  0
 18 19  1  0
 19 20  2  0
 20 21  1  0
 16  7  1  0
 21 17  1  0
 16 11  1  0
M  END
>  <zinc_id>  (584) 
ZINC000001536779

>  <smiles>  (584) 
CNCC[C@H](Oc1cccc2ccccc12)c1cccs1

$$$$

     RDKit          3D

 21 22  0  0  0  0  0  0  0  0999 V2000
    3.9307    2.9950   -0.9153 C   0  0  0  0  0  0  0  0  0  0  0  0
    3.7063    2.0892    0.1728 C   0  0  0  0  0  0  0  0  0  0  0  0
    3.6728    0.6205   -0.2395 C   0  0  0  0  0  0  0  0  0  0  0  0
    2.2857    0.1835   -0.0140 C   0  0  0  0  0  0  0  0  0  0  0  0
    2.0144   -0.7449    0.9886 N   0  0  0  0  0  0  0  0  0  0  0  0
    3.1619   -1.6473    1.0719 C   0  0  0  0  0  0  0  0  0  0  0  0
    2.8673   -3.0139    0.5280 C   0  0  0  0  0  0  0  0  0  0  0  0
    2.2856   -2.9757   -0.8772 C   0  0  0  0  0  0  0  0  0  0  0  0
    1.3602   -1.7737   -1.0059 C   0  0  0  0  0  0  0  0  0  0  0  0
    0.8313   -1.6870    0.5512 C   0  0  2  0  0  0  0  0  0  0  0  0
   -0.2003   -0.4835    0.2810 C   0  0  0  0  0  0  0  0  0  0  0  0
   -0.0443    0.3093   -0.6293 O   0  0  0  0  0  0  0  0  0  0  0  0
   -1.5456   -0.9894    0.3468 N   0  0  0  0  0  0  0  0  0  0  0  0
   -2.6130   -0.0684    0.0881 C   0  0  0  0  0  0  0  0  0  0  0  0
   -3.1920    0.6172    1.1488 C   0  0  0  0  0  0  0  0  0  0  0  0
   -3.3399   -0.0950    2.4366 C   0  0  0  0  0  0  0  0  0  0  0  0
   -3.5486    1.9531    1.0119 C   0  0  0  0  0  0  0  0  0  0  0  0
   -3.3088    2.6481   -0.1675 C   0  0  0  0  0  0  0  0  0  0  0  0
   -3.1596    1.8520   -1.2972 C   0  0  0  0  0  0  0  0  0  0  0  0
   -2.6728    0.5582   -1.1510 C   0  0  0  0  0  0  0  0  0  0  0  0
   -2.4914   -0.3474   -2.3288 C   0  0  0  0  0  0  0  0  0  0  0  0
  1  2  1  0
  2  3  1  0
  3  4  1  0
  4  5  1  0
  5  6  1  0
  6  7  1  0
  7  8  1  0
  8  9  1  0
  9 10  1  0
 10 11  1  6
 11 12  2  0
 11 13  1  0
 13 14  1  0
 14 15  2  0
 15 16  1  0
 15 17  1  0
 17 18  2  0
 18 19  1  0
 19 20  2  0
 20 21  1  0
 10  5  1  0
 20 14  1  0
M  END
>  <zinc_id>  (585) 
ZINC000001530814

>  <smiles>  (585) 
CCCCN1CCCC[C@@H]1C(=O)Nc1c(C)cccc1C

$$$$

     RDKit          3D

 16 16  0  0  0  0  0  0  0  0999 V2000
    4.8884    1.4531    0.1943 C   0  0  0  0  0  0  0  0  0  0  0  0
    3.5201    1.2227    0.6297 C   0  0  0  0  0  0  0  0  0  0  0  0
    3.3902   -0.2490    0.8801 C   0  0  0  0  0  0  0  0  0  0  0  0
    3.0219   -0.9990   -0.3186 N   0  0  0  0  0  0  0  0  0  0  0  0
    1.7336   -1.7393    0.2754 C   0  0  2  0  0  0  0  0  0  0  0  0
    1.5524   -2.6553   -1.1060 C   0  0  0  0  0  0  0  0  0  0  0  0
    0.7075   -0.5872   -0.2658 C   0  0  0  0  0  0  0  0  0  0  0  0
    0.9270   -0.1603   -1.4059 O   0  0  0  0  0  0  0  0  0  0  0  0
   -0.6530   -0.9147    0.0572 N   0  0  0  0  0  0  0  0  0  0  0  0
   -1.6382    0.0273   -0.3538 C   0  0  0  0  0  0  0  0  0  0  0  0
   -1.3494    1.3415   -0.6367 C   0  0  0  0  0  0  0  0  0  0  0  0
   -2.2716    2.3513   -0.5141 C   0  0  0  0  0  0  0  0  0  0  0  0
   -3.5028    2.0433   -0.0004 C   0  0  0  0  0  0  0  0  0  0  0  0
   -3.9149    0.7402    0.1075 C   0  0  0  0  0  0  0  0  0  0  0  0
   -2.9708   -0.2414   -0.0735 C   0  0  0  0  0  0  0  0  0  0  0  0
   -3.4403   -1.6332    0.1030 C   0  0  0  0  0  0  0  0  0  0  0  0
  1  2  1  0
  2  3  1  0
  3  4  1  0
  5  4  1  6
  5  6  1  0
  5  7  1  0
  7  8  2  0
  7  9  1  0
  9 10  1  0
 10 11  2  0
 11 12  1  0
 12 13  2  0
 13 14  1  0
 14 15  2  0
 15 16  1  0
 15 10  1  0
M  END
>  <zinc_id>  (586) 
ZINC000001530817

>  <smiles>  (586) 
CCCN[C@H](C)C(=O)Nc1ccccc1C

$$$$

     RDKit          3D

 15 16  0  0  0  0  0  0  0  0999 V2000
    2.7195    2.4321   -0.9814 C   0  0  0  0  0  0  0  0  0  0  0  0
    2.2215    1.0269   -0.8557 C   0  0  0  0  0  0  0  0  0  0  0  0
    2.8891    0.0935   -0.0717 C   0  0  0  0  0  0  0  0  0  0  0  0
    2.2166   -0.8549    0.6790 C   0  0  0  0  0  0  0  0  0  0  0  0
    2.7063   -1.3770    1.7195 O   0  0  0  0  0  0  0  0  0  0  0  0
    0.8887   -1.0228    0.4612 N   0  0  0  0  0  0  0  0  0  0  0  0
    0.0891   -1.4502    1.5078 O   0  0  0  0  0  0  0  0  0  0  0  0
    0.2459   -0.2731   -0.4694 C   0  0  0  0  0  0  0  0  0  0  0  0
   -1.2337   -0.4186   -0.6453 C   0  0  0  0  0  0  0  0  0  0  0  0
   -1.7441    0.9188   -1.1047 C   0  0  0  0  0  0  0  0  0  0  0  0
   -3.2324    1.0740   -0.9564 C   0  0  0  0  0  0  0  0  0  0  0  0
   -3.6469    0.7158    0.4451 C   0  0  0  0  0  0  0  0  0  0  0  0
   -3.2707   -0.6954    0.8064 C   0  0  0  0  0  0  0  0  0  0  0  0
   -1.7795   -0.8406    0.6915 C   0  0  0  0  0  0  0  0  0  0  0  0
    0.9304    0.6715   -1.2258 C   0  0  0  0  0  0  0  0  0  0  0  0
  1  2  1  0
  2  3  2  0
  3  4  1  0
  4  5  2  0
  4  6  1  0
  6  7  1  0
  6  8  1  0
  8  9  1  0
  9 10  1  0
 10 11  1  0
 11 12  1  0
 12 13  1  0
 13 14  1  0
  8 15  2  0
 15  2  1  0
 14  9  1  0
M  END
>  <zinc_id>  (587) 
ZINC000000001145

>  <smiles>  (587) 
Cc1cc(C2CCCCC2)n(O)c(=O)c1

$$$$

     RDKit          3D

 22 22  0  0  0  0  0  0  0  0999 V2000
   -6.1475   -0.9778   -0.3413 C   0  0  0  0  0  0  0  0  0  0  0  0
   -5.2018   -0.5961    0.0426 C   0  0  0  0  0  0  0  0  0  0  0  0
   -4.9752   -0.6228    1.2891 O   0  0  0  0  0  0  0  0  0  0  0  0
   -4.3005    0.1457   -0.7241 O   0  0  0  0  0  0  0  0  0  0  0  0
   -2.9621    0.3199   -0.3595 C   0  0  0  0  0  0  0  0  0  0  0  0
   -2.4703    1.6054   -0.2089 C   0  0  0  0  0  0  0  0  0  0  0  0
   -3.4444    2.6947    0.1076 C   0  0  0  0  0  0  0  0  0  0  0  0
   -1.1239    1.7421    0.0855 C   0  0  0  0  0  0  0  0  0  0  0  0
   -0.3241    0.6283    0.3128 C   0  0  0  0  0  0  0  0  0  0  0  0
    1.0152    0.7540    0.6658 O   0  0  0  0  0  0  0  0  0  0  0  0
    2.0800    0.2681   -0.1494 C   0  0  0  0  0  0  0  0  0  0  0  0
    2.8146   -0.8777    0.8027 C   0  0  1  0  0  0  0  0  0  0  0  0
    3.3552   -1.6257   -0.4155 O   0  0  0  0  0  0  0  0  0  0  0  0
    4.2005    0.0212    0.9557 C   0  0  0  0  0  0  0  0  0  0  0  0
    4.5167    0.5031   -0.3493 N   0  0  0  0  0  0  0  0  0  0  0  0
    5.9328    0.5173   -0.5874 C   0  0  0  0  0  0  0  0  0  0  0  0
    6.5669   -0.8306   -0.3736 C   0  0  0  0  0  0  0  0  0  0  0  0
    6.5884    1.5424    0.3067 C   0  0  0  0  0  0  0  0  0  0  0  0
   -0.9343   -0.6123    0.4571 C   0  0  0  0  0  0  0  0  0  0  0  0
   -0.3942   -1.6327    1.4028 C   0  0  0  0  0  0  0  0  0  0  0  0
   -2.1390   -0.7903   -0.2117 C   0  0  0  0  0  0  0  0  0  0  0  0
   -2.6531   -2.1760   -0.3120 C   0  0  0  0  0  0  0  0  0  0  0  0
  1  2  1  0
  2  3  2  0
  2  4  1  0
  4  5  1  0
  5  6  2  0
  6  7  1  0
  6  8  1  0
  8  9  2  0
  9 10  1  0
 10 11  1  0
 12 11  1  6
 12 13  1  0
 12 14  1  0
 14 15  1  0
 15 16  1  0
 16 17  1  0
 16 18  1  0
  9 19  1  0
 19 20  1  0
 19 21  2  0
 21 22  1  0
 21  5  1  0
M  END
>  <zinc_id>  (588) 
ZINC000000389149

>  <smiles>  (588) 
CC(=O)Oc1c(C)cc(OC[C@@H](O)CNC(C)C)c(C)c1C

$$$$

     RDKit          3D

 21 21  0  0  0  0  0  0  0  0999 V2000
   -3.9649   -0.2084   -2.8089 C   0  0  0  0  0  0  0  0  0  0  0  0
   -4.6116   -0.3520   -1.5300 N   0  0  0  0  0  0  0  0  0  0  0  0
   -3.9201   -0.2629   -0.2827 C   0  0  0  0  0  0  0  0  0  0  0  0
   -4.1826    0.7938    0.4647 C   0  0  0  0  0  0  0  0  0  0  0  0
   -5.4787    1.4018    0.4519 N   0  0  0  0  0  0  0  0  0  0  0  0
   -6.1703    1.4309   -0.5706 O   0  0  0  0  0  0  0  0  0  0  0  0
   -5.7872    2.1700    1.5598 O   0  0  0  0  0  0  0  0  0  0  0  0
   -3.0990   -1.3226    0.2132 N   0  0  0  0  0  0  0  0  0  0  0  0
   -1.6929   -1.0573    0.4133 C   0  0  0  0  0  0  0  0  0  0  0  0
   -1.4835    0.2856    1.0562 C   0  0  0  0  0  0  0  0  0  0  0  0
    0.2479    0.8128    0.8441 S   0  0  0  0  0  0  0  0  0  0  0  0
    0.9113    0.0572   -0.6770 C   0  0  0  0  0  0  0  0  0  0  0  0
    2.0865   -0.7685   -0.2502 C   0  0  0  0  0  0  0  0  0  0  0  0
    2.0502   -2.1599   -0.2810 C   0  0  0  0  0  0  0  0  0  0  0  0
    3.5528   -2.5018    0.4829 S   0  0  0  0  0  0  0  0  0  0  0  0
    4.1661   -0.8968    0.5302 C   0  0  0  0  0  0  0  0  0  0  0  0
    5.4960   -0.3884    0.9978 C   0  0  0  0  0  0  0  0  0  0  0  0
    5.8641    0.6811    0.1140 N   0  0  0  0  0  0  0  0  0  0  0  0
    7.2133    0.6169   -0.3680 C   0  0  0  0  0  0  0  0  0  0  0  0
    5.4664    1.9849    0.5771 C   0  0  0  0  0  0  0  0  0  0  0  0
    3.3362   -0.3164   -0.3730 N   0  0  0  0  0  0  0  0  0  0  0  0
  1  2  1  0
  2  3  1  0
  3  4  2  0
  4  5  1  0
  5  6  2  0
  5  7  1  0
  3  8  1  0
  8  9  1  0
  9 10  1  0
 10 11  1  0
 11 12  1  0
 12 13  1  0
 13 14  2  0
 14 15  1  0
 15 16  1  0
 16 17  1  0
 17 18  1  0
 18 19  1  0
 18 20  1  0
 16 21  2  0
 21 13  1  0
M  CHG  2   5   1   7  -1
M  END
>  <zinc_id>  (589) 
ZINC000001530736

>  <smiles>  (589) 
CN/C(=C\[N+](=O)[O-])NCCSCc1csc(CN(C)C)n1

$$$$

     RDKit          3D

 25 26  0  0  0  0  0  0  0  0999 V2000
    4.0669    4.2740   -0.1049 C   0  0  0  0  0  0  0  0  0  0  0  0
    4.6834    3.2179   -0.6297 C   0  0  0  0  0  0  0  0  0  0  0  0
    5.4095    2.4110    0.4401 C   0  0  0  0  0  0  0  0  0  0  0  0
    5.6034    1.0285    0.0088 N   0  0  0  0  0  0  0  0  0  0  0  0
    4.5249    0.5330   -0.7977 C   0  0  0  0  0  0  0  0  0  0  0  0
    3.5465   -0.2974    0.2432 C   0  0  1  0  0  0  0  0  0  0  0  0
    2.9131    0.9875    0.7572 O   0  0  0  0  0  0  0  0  0  0  0  0
    2.3784   -0.4882   -0.9073 C   0  0  0  0  0  0  0  0  0  0  0  0
    1.1966   -0.5186   -0.1111 O   0  0  0  0  0  0  0  0  0  0  0  0
    0.7361   -1.7523    0.3296 C   0  0  0  0  0  0  0  0  0  0  0  0
    1.5755   -2.6748    0.9453 C   0  0  0  0  0  0  0  0  0  0  0  0
    1.0588   -3.9483    1.1055 C   0  0  0  0  0  0  0  0  0  0  0  0
    0.0296   -4.3872    0.2853 C   0  0  0  0  0  0  0  0  0  0  0  0
   -0.8437   -3.4095   -0.1764 C   0  0  0  0  0  0  0  0  0  0  0  0
   -0.5728   -2.0567   -0.0039 C   0  0  0  0  0  0  0  0  0  0  0  0
   -1.6245   -1.0379   -0.1147 C   0  0  0  0  0  0  0  0  0  0  0  0
   -1.3381    0.1082    0.3493 O   0  0  0  0  0  0  0  0  0  0  0  0
   -2.9920   -1.5087    0.1713 C   0  0  0  0  0  0  0  0  0  0  0  0
   -4.0606   -0.9074   -0.6729 C   0  0  0  0  0  0  0  0  0  0  0  0
   -4.4704    0.4358   -0.2268 C   0  0  0  0  0  0  0  0  0  0  0  0
   -3.9716    1.4979   -0.9679 C   0  0  0  0  0  0  0  0  0  0  0  0
   -3.9583    2.8050   -0.5030 C   0  0  0  0  0  0  0  0  0  0  0  0
   -4.0946    2.9656    0.8712 C   0  0  0  0  0  0  0  0  0  0  0  0
   -4.8098    1.9944    1.5625 C   0  0  0  0  0  0  0  0  0  0  0  0
   -4.9862    0.7283    1.0160 C   0  0  0  0  0  0  0  0  0  0  0  0
  1  2  1  0
  2  3  1  0
  3  4  1  0
  4  5  1  0
  6  5  1  6
  6  7  1  0
  6  8  1  0
  8  9  1  0
  9 10  1  0
 10 11  2  0
 11 12  1  0
 12 13  2  0
 13 14  1  0
 14 15  2  0
 15 16  1  0
 16 17  2  0
 16 18  1  0
 18 19  1  0
 19 20  1  0
 20 21  2  0
 21 22  1  0
 22 23  2  0
 23 24  1  0
 24 25  2  0
 15 10  1  0
 25 20  1  0
M  END
>  <zinc_id>  (590) 
ZINC000001530760

>  <smiles>  (590) 
CCCNC[C@@H](O)COc1ccccc1C(=O)CCc1ccccc1

$$$$

     RDKit          3D

 22 24  0  0  0  0  0  0  0  0999 V2000
   -4.8230    0.6925   -2.5784 C   0  0  0  0  0  0  0  0  0  0  0  0
   -3.3240    0.5741   -2.7815 C   0  0  0  0  0  0  0  0  0  0  0  0
   -2.9862   -0.7795   -2.6754 O   0  0  0  0  0  0  0  0  0  0  0  0
   -2.3601   -0.9436   -1.4453 C   0  0  0  0  0  0  0  0  0  0  0  0
   -1.1768   -0.0112   -1.3529 C   0  0  0  0  0  0  0  0  0  0  0  0
   -0.7302    0.0895    0.0269 N   0  0  0  0  0  0  0  0  0  0  0  0
   -1.5654    0.1687    1.0642 C   0  0  0  0  0  0  0  0  0  0  0  0
   -2.8362   -0.2995    1.3326 C   0  0  0  0  0  0  0  0  0  0  0  0
   -3.2819   -0.5060    2.6318 C   0  0  0  0  0  0  0  0  0  0  0  0
   -2.4161   -0.3264    3.7021 C   0  0  0  0  0  0  0  0  0  0  0  0
   -1.1818    0.2168    3.4624 C   0  0  0  0  0  0  0  0  0  0  0  0
   -0.7530    0.3805    2.1713 C   0  0  0  0  0  0  0  0  0  0  0  0
    0.3857    0.8872    1.6967 N   0  0  0  0  0  0  0  0  0  0  0  0
    0.4605    0.6291    0.3800 C   0  0  0  0  0  0  0  0  0  0  0  0
    1.5428    0.9076   -0.5172 N   0  0  0  0  0  0  0  0  0  0  0  0
    1.6211   -0.0845   -1.5742 C   0  0  0  0  0  0  0  0  0  0  0  0
    2.9344   -0.0773   -2.2944 C   0  0  0  0  0  0  0  0  0  0  0  0
    3.9592   -0.8530   -1.4783 C   0  0  0  0  0  0  0  0  0  0  0  0
    4.4730    0.0508   -0.4852 N   0  0  0  0  0  0  0  0  0  0  0  0
    5.8058   -0.2673   -0.0435 C   0  0  0  0  0  0  0  0  0  0  0  0
    3.5572    0.3120    0.5947 C   0  0  0  0  0  0  0  0  0  0  0  0
    2.6948    1.4925    0.1633 C   0  0  0  0  0  0  0  0  0  0  0  0
  1  2  1  0
  2  3  1  0
  3  4  1  0
  4  5  1  0
  5  6  1  0
  6  7  1  0
  7  8  2  0
  8  9  1  0
  9 10  2  0
 10 11  1  0
 11 12  2  0
 12 13  1  0
 13 14  2  0
 14 15  1  0
 15 16  1  0
 16 17  1  0
 17 18  1  0
 18 19  1  0
 19 20  1  0
 19 21  1  0
 21 22  1  0
 14  6  1  0
 22 15  1  0
 12  7  1  0
M  END
>  <zinc_id>  (591) 
ZINC000001530912

>  <smiles>  (591) 
CCOCCn1c(N2CCCN(C)CC2)nc2ccccc21

$$$$

     RDKit          3D

 19 20  0  0  0  0  0  0  0  0999 V2000
   -3.6391   -3.1093   -0.0633 C   0  0  0  0  0  0  0  0  0  0  0  0
   -2.2060   -2.8106   -0.4063 C   0  0  0  0  0  0  0  0  0  0  0  0
   -1.6327   -1.9001    0.5548 N   0  0  0  0  0  0  0  0  0  0  0  0
   -1.7141   -0.4482   -0.0576 C   0  0  1  0  0  0  0  0  0  0  0  0
   -2.0100    0.1678    1.4318 C   0  0  0  0  0  0  0  0  0  0  0  0
   -1.5996    1.6963    1.4294 C   0  0  2  0  0  0  0  0  0  0  0  0
   -3.1039    2.2325    1.5447 C   0  0  0  0  0  0  0  0  0  0  0  0
   -1.3933    2.0366   -0.4019 S   0  0  0  0  0  0  0  0  0  0  0  0
   -0.9372    3.4478   -0.5602 O   0  0  0  0  0  0  0  0  0  0  0  0
   -2.6421    1.6993   -1.0999 O   0  0  0  0  0  0  0  0  0  0  0  0
   -0.0707    0.9350   -0.7974 C   0  0  0  0  0  0  0  0  0  0  0  0
    1.5790    1.0156   -1.2524 S   0  0  0  0  0  0  0  0  0  0  0  0
    2.0864   -0.4868   -0.5881 C   0  0  0  0  0  0  0  0  0  0  0  0
    3.7162   -0.7898    0.0075 S   0  0  0  0  0  0  0  0  0  0  0  0
    4.7014    0.6384   -0.0689 N   0  0  0  0  0  0  0  0  0  0  0  0
    4.3699   -1.8270   -0.8328 O   0  0  0  0  0  0  0  0  0  0  0  0
    3.7134   -1.2258    1.4448 O   0  0  0  0  0  0  0  0  0  0  0  0
    0.8940   -1.0689   -0.3051 C   0  0  0  0  0  0  0  0  0  0  0  0
   -0.1118   -0.2027    0.0208 C   0  0  0  0  0  0  0  0  0  0  0  0
  1  2  1  0
  2  3  1  0
  4  3  1  1
  4  5  1  0
  5  6  1  0
  6  7  1  6
  6  8  1  0
  8  9  2  0
  8 10  2  0
  8 11  1  0
 11 12  1  0
 12 13  1  0
 13 14  1  0
 14 15  1  0
 14 16  2  0
 14 17  2  0
 13 18  2  0
 18 19  1  0
 19  4  1  0
 19 11  2  0
M  END
>  <zinc_id>  (592) 
ZINC000001530621

>  <smiles>  (592) 
CCN[C@H]1C[C@H](C)S(=O)(=O)c2sc(S(N)(=O)=O)cc21

$$$$

     RDKit          3D

 19 22  0  0  0  0  0  0  0  0999 V2000
   -2.5530    2.4612   -0.4487 N   0  0  0  0  0  0  0  0  0  0  0  0
   -1.2385    2.2571   -0.1365 C   0  0  0  0  0  0  0  0  0  0  0  0
   -0.3272    3.1269   -0.0099 N   0  0  0  0  0  0  0  0  0  0  0  0
    0.9499    2.5883    0.3309 C   0  0  0  0  0  0  0  0  0  0  0  0
    0.4811    1.0752    0.8487 C   0  0  2  0  0  0  0  0  0  0  0  0
    1.6401    0.3645   -0.0623 C   0  0  0  0  0  0  0  0  0  0  0  0
    2.7885    0.7527    0.6227 C   0  0  0  0  0  0  0  0  0  0  0  0
    3.7882   -0.1467    0.9787 C   0  0  0  0  0  0  0  0  0  0  0  0
    3.9034   -1.2476    0.1377 C   0  0  0  0  0  0  0  0  0  0  0  0
    2.7490   -1.6675   -0.5142 C   0  0  0  0  0  0  0  0  0  0  0  0
    1.5449   -0.9985   -0.3142 C   0  0  0  0  0  0  0  0  0  0  0  0
    0.4443   -1.8725   -0.7137 C   0  0  0  0  0  0  0  0  0  0  0  0
   -0.8814   -1.4967   -0.2119 C   0  0  0  0  0  0  0  0  0  0  0  0
   -1.7827   -2.5541   -0.1905 C   0  0  0  0  0  0  0  0  0  0  0  0
   -3.0281   -2.2862    0.3663 C   0  0  0  0  0  0  0  0  0  0  0  0
   -3.6539   -1.0933    0.0189 C   0  0  0  0  0  0  0  0  0  0  0  0
   -2.7831   -0.0191   -0.1532 C   0  0  0  0  0  0  0  0  0  0  0  0
   -1.4183   -0.2171   -0.2435 C   0  0  0  0  0  0  0  0  0  0  0  0
   -0.6231    0.9735   -0.3054 N   0  0  0  0  0  0  0  0  0  0  0  0
  1  2  1  0
  2  3  2  0
  3  4  1  0
  5  4  1  6
  5  6  1  0
  6  7  2  0
  7  8  1  0
  8  9  2  0
  9 10  1  0
 10 11  2  0
 11 12  1  0
 12 13  1  0
 13 14  2  0
 14 15  1  0
 15 16  2  0
 16 17  1  0
 17 18  2  0
 18 19  1  0
 19  2  1  0
 19  5  1  0
 11  6  1  0
 18 13  1  0
M  END
>  <zinc_id>  (593) 
ZINC000000006157

>  <smiles>  (593) 
NC1=NC[C@@H]2c3ccccc3Cc3ccccc3N12

$$$$

     RDKit          3D

 20 22  0  0  0  0  0  0  0  0999 V2000
   -3.7119   -0.9406   -1.2404 C   0  0  0  0  0  0  0  0  0  0  0  0
   -2.4737   -1.0287   -0.5126 N   0  0  0  0  0  0  0  0  0  0  0  0
   -1.7126    0.1830   -0.5490 C   0  0  0  0  0  0  0  0  0  0  0  0
   -2.4642    1.3084   -0.7501 C   0  0  0  0  0  0  0  0  0  0  0  0
   -1.9737    2.5489   -0.3604 C   0  0  0  0  0  0  0  0  0  0  0  0
   -0.8049    2.6825    0.3746 C   0  0  0  0  0  0  0  0  0  0  0  0
   -0.7149    3.8874    1.6537 Cl  0  0  0  0  0  0  0  0  0  0  0  0
    0.0545    1.5911    0.3327 C   0  0  0  0  0  0  0  0  0  0  0  0
   -0.4211    0.3472   -0.0631 C   0  0  0  0  0  0  0  0  0  0  0  0
    0.5344   -0.6956    0.3140 C   0  0  0  0  0  0  0  0  0  0  0  0
    1.9186   -0.2939    0.1326 C   0  0  0  0  0  0  0  0  0  0  0  0
    2.7419   -1.1855   -0.5340 C   0  0  0  0  0  0  0  0  0  0  0  0
    4.1065   -0.9586   -0.6514 C   0  0  0  0  0  0  0  0  0  0  0  0
    4.5930    0.2280   -0.1155 C   0  0  0  0  0  0  0  0  0  0  0  0
    3.7007    1.2768    0.0335 C   0  0  0  0  0  0  0  0  0  0  0  0
    2.4038    0.9573    0.4137 C   0  0  0  0  0  0  0  0  0  0  0  0
    0.2980   -1.9498    0.3700 N   0  0  0  0  0  0  0  0  0  0  0  0
   -0.9019   -2.6202    0.8499 C   0  0  0  0  0  0  0  0  0  0  0  0
   -2.0914   -2.2973    0.0296 C   0  0  0  0  0  0  0  0  0  0  0  0
   -3.0811   -3.0406    0.2720 O   0  0  0  0  0  0  0  0  0  0  0  0
  1  2  1  0
  2  3  1  0
  3  4  2  0
  4  5  1  0
  5  6  2  0
  6  7  1  0
  6  8  1  0
  8  9  2  0
  9 10  1  0
 10 11  1  0
 11 12  2  0
 12 13  1  0
 13 14  2  0
 14 15  1  0
 15 16  2  0
 10 17  2  0
 17 18  1  0
 18 19  1  0
 19 20  2  0
 19  2  1  0
  9  3  1  0
 16 11  1  0
M  END
>  <zinc_id>  (594) 
ZINC000000006427

>  <smiles>  (594) 
CN1C(=O)CN=C(c2ccccc2)c2cc(Cl)ccc21

$$$$

     RDKit          3D

 22 24  0  0  0  0  0  0  0  0999 V2000
    4.5870   -0.2560    0.3030 C   0  0  0  0  0  0  0  0  0  0  0  0
    3.2637   -0.3843   -0.0518 C   0  0  0  0  0  0  0  0  0  0  0  0
    2.4692   -0.2815    0.9334 O   0  0  0  0  0  0  0  0  0  0  0  0
    2.7379   -0.7413   -1.2548 O   0  0  0  0  0  0  0  0  0  0  0  0
    1.1905   -0.7367   -1.3499 C   0  0  1  0  0  0  0  0  0  0  0  0
    1.0041   -1.6009    0.0477 C   0  0  0  0  0  0  0  0  0  0  0  0
   -0.4609   -1.8305    0.1509 C   0  0  0  0  0  0  0  0  0  0  0  0
   -0.8923   -3.0858   -0.2264 C   0  0  0  0  0  0  0  0  0  0  0  0
   -2.2718   -3.2244   -0.3220 C   0  0  0  0  0  0  0  0  0  0  0  0
   -3.1256   -2.4112    0.4135 C   0  0  0  0  0  0  0  0  0  0  0  0
   -2.6872   -1.1685    0.8538 C   0  0  0  0  0  0  0  0  0  0  0  0
   -1.3677   -0.8750    0.5901 C   0  0  0  0  0  0  0  0  0  0  0  0
   -1.1233    0.5363    0.5713 N   0  0  0  0  0  0  0  0  0  0  0  0
   -1.9863    1.2923    1.4169 C   0  0  0  0  0  0  0  0  0  0  0  0
   -2.9766    0.5975    2.1852 N   0  0  0  0  0  0  0  0  0  0  0  0
   -1.4172    2.2148    2.0769 O   0  0  0  0  0  0  0  0  0  0  0  0
   -0.1704    1.2151   -0.2065 C   0  0  0  0  0  0  0  0  0  0  0  0
   -0.5522    2.5183   -0.3946 C   0  0  0  0  0  0  0  0  0  0  0  0
   -0.0136    3.2227   -1.4646 C   0  0  0  0  0  0  0  0  0  0  0  0
    1.1030    2.7111   -2.0594 C   0  0  0  0  0  0  0  0  0  0  0  0
    1.6508    1.5668   -1.5679 C   0  0  0  0  0  0  0  0  0  0  0  0
    1.0390    0.7211   -0.6446 C   0  0  0  0  0  0  0  0  0  0  0  0
  1  2  1  0
  2  3  2  0
  2  4  1  0
  5  4  1  1
  5  6  1  0
  6  7  1  0
  7  8  2  0
  8  9  1  0
  9 10  2  0
 10 11  1  0
 11 12  2  0
 12 13  1  0
 13 14  1  0
 14 15  1  0
 14 16  2  0
 13 17  1  0
 17 18  2  0
 18 19  1  0
 19 20  2  0
 20 21  1  0
 21 22  2  0
 22  5  1  0
 12  7  1  0
 22 17  1  0
M  END
>  <zinc_id>  (595) 
ZINC000000007295

>  <smiles>  (595) 
CC(=O)O[C@H]1Cc2ccccc2N(C(N)=O)c2ccccc21

$$$$

     RDKit          3D

 18 18  0  0  0  0  0  0  0  0999 V2000
   -0.8229    2.4449   -0.4664 C   0  0  0  0  0  0  0  0  0  0  0  0
   -1.0041    1.5659   -0.4154 O   0  0  0  0  0  0  0  0  0  0  0  0
   -1.6960    1.1078    0.6313 C   0  0  0  0  0  0  0  0  0  0  0  0
   -1.7115   -0.5320    0.6779 C   0  0  1  0  0  0  0  0  0  0  0  0
   -2.9674   -0.6045   -0.2764 N   0  0  0  0  0  0  0  0  0  0  0  0
   -4.1301   -1.0313    0.4264 C   0  0  0  0  0  0  0  0  0  0  0  0
   -5.4653   -0.4123    0.2574 C   0  0  0  0  0  0  0  0  0  0  0  0
   -3.9863   -1.9479    1.2713 O   0  0  0  0  0  0  0  0  0  0  0  0
   -0.6404   -0.7632   -0.5021 C   0  0  0  0  0  0  0  0  0  0  0  0
   -0.8836   -0.4231   -1.6453 O   0  0  0  0  0  0  0  0  0  0  0  0
    0.5120   -1.5112   -0.1027 N   0  0  0  0  0  0  0  0  0  0  0  0
    1.7013   -1.3608   -0.9360 C   0  0  0  0  0  0  0  0  0  0  0  0
    2.5919   -0.4031   -0.2218 C   0  0  0  0  0  0  0  0  0  0  0  0
    2.2168    0.9068    0.0389 C   0  0  0  0  0  0  0  0  0  0  0  0
    3.1535    1.9241    0.1665 C   0  0  0  0  0  0  0  0  0  0  0  0
    4.4373    1.5570    0.5135 C   0  0  0  0  0  0  0  0  0  0  0  0
    4.8039    0.2294    0.4913 C   0  0  0  0  0  0  0  0  0  0  0  0
    3.8910   -0.7464    0.1116 C   0  0  0  0  0  0  0  0  0  0  0  0
  1  2  1  0
  2  3  1  0
  4  3  1  6
  4  5  1  0
  5  6  1  0
  6  7  1  0
  6  8  2  0
  4  9  1  0
  9 10  2  0
  9 11  1  0
 11 12  1  0
 12 13  1  0
 13 14  2  0
 14 15  1  0
 15 16  2  0
 16 17  1  0
 17 18  2  0
 18 13  1  0
M  END
>  <zinc_id>  (596) 
ZINC000000007673

>  <smiles>  (596) 
COC[C@@H](NC(C)=O)C(=O)NCc1ccccc1

$$$$

     RDKit          3D

 19 18  0  0  0  0  0  0  0  0999 V2000
    5.2013   -0.5034   -1.3827 C   0  0  0  0  0  0  0  0  0  0  0  0
    5.1545    0.8664   -0.7409 C   0  0  0  0  0  0  0  0  0  0  0  0
    4.6424    0.8344    0.6731 C   0  0  0  0  0  0  0  0  0  0  0  0
    3.1271    0.8957    0.7400 C   0  0  0  0  0  0  0  0  0  0  0  0
    2.5019   -0.0085   -0.3173 C   0  0  0  0  0  0  0  0  0  0  0  0
    1.3448   -0.6200    0.3349 N   0  0  0  0  0  0  0  0  0  0  0  0
    1.9177   -1.4346    1.4056 C   0  0  0  0  0  0  0  0  0  0  0  0
    0.5488   -1.3942   -0.5766 C   0  0  0  0  0  0  0  0  0  0  0  0
   -0.5311   -0.6162   -1.2649 C   0  0  0  0  0  0  0  0  0  0  0  0
   -1.3836    0.1957   -0.3369 C   0  0  0  0  0  0  0  0  0  0  0  0
   -0.6169    1.2447    0.1952 O   0  0  0  0  0  0  0  0  0  0  0  0
   -2.7082    0.9859   -1.2968 P   0  0  0  0  0  0  0  0  0  0  0  0
   -2.1949    2.0404   -2.2276 O   0  0  0  0  0  0  0  0  0  0  0  0
   -3.6462   -0.1835   -2.0593 O   0  0  0  0  0  0  0  0  0  0  0  0
   -3.7341    1.7717   -0.1887 O   0  0  0  0  0  0  0  0  0  0  0  0
   -2.1785   -0.7858    0.9498 P   0  0  0  0  0  0  0  0  0  0  0  0
   -2.0200   -0.0138    2.2468 O   0  0  0  0  0  0  0  0  0  0  0  0
   -3.8539   -0.9283    0.6899 O   0  0  0  0  0  0  0  0  0  0  0  0
   -1.5711   -2.3464    1.0585 O   0  0  0  0  0  0  0  0  0  0  0  0
  1  2  1  0
  2  3  1  0
  3  4  1  0
  4  5  1  0
  5  6  1  0
  6  7  1  0
  6  8  1  0
  8  9  1  0
  9 10  1  0
 10 11  1  0
 10 12  1  0
 12 13  2  0
 12 14  1  0
 12 15  1  0
 10 16  1  0
 16 17  2  0
 16 18  1  0
 16 19  1  0
M  END
>  <zinc_id>  (597) 
ZINC000001533877

>  <smiles>  (597) 
CCCCCN(C)CCC(O)(P(=O)(O)O)P(=O)(O)O

$$$$

     RDKit          3D

 32 36  0  0  0  0  0  0  0  0999 V2000
    3.0490   -5.2180    1.1622 C   0  0  0  0  0  0  0  0  0  0  0  0
    2.9199   -3.8116    1.5753 C   0  0  0  0  0  0  0  0  0  0  0  0
    2.9930   -2.6215    1.5162 C   0  0  0  0  0  0  0  0  0  0  0  0
    3.3928   -1.2922    1.0503 C   0  0  2  0  0  0  0  0  0  0  0  0
    4.5089   -1.3633    0.1878 O   0  0  0  0  0  0  0  0  0  0  0  0
    3.9164   -0.4250    2.1872 C   0  0  0  0  0  0  0  0  0  0  0  0
    3.7379    0.9466    1.5175 C   0  0  0  0  0  0  0  0  0  0  0  0
    2.1331    0.7638    1.4559 C   0  0  1  0  0  0  0  0  0  0  0  0
    1.8909    1.8639    0.1923 C   0  0  2  0  0  0  0  0  0  0  0  0
    1.2551    2.9635    1.2077 C   0  0  0  0  0  0  0  0  0  0  0  0
    1.0526    4.0911    0.1976 C   0  0  0  0  0  0  0  0  0  0  0  0
   -0.0841    3.6249   -0.6606 C   0  0  0  0  0  0  0  0  0  0  0  0
   -1.0817    4.5103   -0.7767 C   0  0  0  0  0  0  0  0  0  0  0  0
   -2.4761    4.0581   -0.8188 C   0  0  0  0  0  0  0  0  0  0  0  0
   -3.4669    4.6790   -0.4134 O   0  0  0  0  0  0  0  0  0  0  0  0
   -2.6819    2.7441   -1.4805 C   0  0  0  0  0  0  0  0  0  0  0  0
   -1.6600    1.7434   -1.1477 C   0  0  0  0  0  0  0  0  0  0  0  0
   -0.3566    2.1834   -0.7101 C   0  0  0  0  0  0  0  0  0  0  0  0
    0.4896    1.2534   -0.2609 C   0  0  0  0  0  0  0  0  0  0  0  0
   -0.1244    0.2260    0.8072 C   0  0  1  0  0  0  0  0  0  0  0  0
   -1.2254   -0.3783   -0.1936 C   0  0  0  0  0  0  0  0  0  0  0  0
   -0.8938   -1.3270   -1.1108 C   0  0  0  0  0  0  0  0  0  0  0  0
   -1.9449   -1.9891   -1.7423 C   0  0  0  0  0  0  0  0  0  0  0  0
   -3.1429   -2.1587   -1.0604 C   0  0  0  0  0  0  0  0  0  0  0  0
   -3.8526   -3.3617   -1.3947 N   0  0  0  0  0  0  0  0  0  0  0  0
   -3.4746   -4.5228   -0.5955 C   0  0  0  0  0  0  0  0  0  0  0  0
   -5.2735   -3.1761   -1.6690 C   0  0  0  0  0  0  0  0  0  0  0  0
   -3.2702   -1.6078    0.2098 C   0  0  0  0  0  0  0  0  0  0  0  0
   -2.2545   -0.8014    0.6610 C   0  0  0  0  0  0  0  0  0  0  0  0
    0.9373   -0.9990    0.5427 C   0  0  0  0  0  0  0  0  0  0  0  0
    2.2859   -0.4936    0.4610 C   0  0  2  0  0  0  0  0  0  0  0  0
    2.7017   -0.1043   -0.8966 C   0  0  0  0  0  0  0  0  0  0  0  0
  1  2  1  0
  2  3  3  0
  4  3  1  1
  4  5  1  0
  4  6  1  0
  6  7  1  0
  8  7  1  6
  8  9  1  0
  9 10  1  1
 10 11  1  0
 11 12  1  0
 12 13  2  0
 13 14  1  0
 14 15  2  0
 14 16  1  0
 16 17  1  0
 17 18  1  0
 18 19  2  0
 19 20  1  0
 20 21  1  6
 21 22  2  0
 22 23  1  0
 23 24  2  0
 24 25  1  0
 25 26  1  0
 25 27  1  0
 24 28  1  0
 28 29  2  0
 20 30  1  0
 30 31  1  0
 31 32  1  6
 31  4  1  0
 31  8  1  0
 19  9  1  0
 29 21  1  0
 18 12  1  0
M  END
>  <zinc_id>  (598) 
ZINC000003831128

>  <smiles>  (598) 
CC#C[C@]1(O)CC[C@H]2[C@@H]3CCC4=CC(=O)CCC4=C3[C@@H](c3ccc(N(C)C)cc3)C[C@@]21C

$$$$

     RDKit          3D

 35 39  0  0  0  0  0  0  0  0999 V2000
   -4.4462    1.7644   -2.7313 C   0  0  0  0  0  0  0  0  0  0  0  0
   -4.1064    0.7925   -1.9729 C   0  0  0  0  0  0  0  0  0  0  0  0
   -3.9924   -0.3561   -2.5037 O   0  0  0  0  0  0  0  0  0  0  0  0
   -3.7373    0.9288   -0.6268 O   0  0  0  0  0  0  0  0  0  0  0  0
   -3.3309   -0.2030    0.0867 C   0  0  2  0  0  0  0  0  0  0  0  0
   -4.2775   -1.2903   -0.3538 C   0  0  0  0  0  0  0  0  0  0  0  0
   -4.0839   -2.7306    0.0417 C   0  0  0  0  0  0  0  0  0  0  0  0
   -5.4557   -0.9609   -0.1663 O   0  0  0  0  0  0  0  0  0  0  0  0
   -3.6859   -0.1515    1.5752 C   0  0  0  0  0  0  0  0  0  0  0  0
   -2.8710   -1.3828    2.0116 C   0  0  0  0  0  0  0  0  0  0  0  0
   -1.5134   -0.5879    1.6364 C   0  0  1  0  0  0  0  0  0  0  0  0
   -0.4923   -1.9235    1.4224 C   0  0  2  0  0  0  0  0  0  0  0  0
    0.3048   -1.6576    2.8103 C   0  0  0  0  0  0  0  0  0  0  0  0
    1.4421   -2.6581    2.7044 C   0  0  0  0  0  0  0  0  0  0  0  0
    2.1814   -2.5180    1.4126 C   0  0  0  0  0  0  0  0  0  0  0  0
    3.1759   -3.2784    1.0440 C   0  0  0  0  0  0  0  0  0  0  0  0
    3.8198   -2.9766   -0.2421 C   0  0  0  0  0  0  0  0  0  0  0  0
    4.6691   -3.8274   -0.6468 O   0  0  0  0  0  0  0  0  0  0  0  0
    3.2276   -2.0993   -1.2664 C   0  0  0  0  0  0  0  0  0  0  0  0
    2.3475   -1.0257   -0.7294 C   0  0  0  0  0  0  0  0  0  0  0  0
    1.7755   -1.4531    0.5405 C   0  0  0  0  0  0  0  0  0  0  0  0
    0.5437   -1.0625    0.5747 C   0  0  0  0  0  0  0  0  0  0  0  0
    0.2603    0.5071    0.7179 C   0  0  1  0  0  0  0  0  0  0  0  0
    1.4895    1.0439   -0.1759 C   0  0  0  0  0  0  0  0  0  0  0  0
    1.1402    1.9512   -1.1718 C   0  0  0  0  0  0  0  0  0  0  0  0
    1.8263    3.1396   -1.3854 C   0  0  0  0  0  0  0  0  0  0  0  0
    2.6479    3.6217   -0.4127 C   0  0  0  0  0  0  0  0  0  0  0  0
    3.1361    4.9634   -0.3359 N   0  0  0  0  0  0  0  0  0  0  0  0
    2.4505    5.8929    0.5614 C   0  0  0  0  0  0  0  0  0  0  0  0
    4.5946    5.0716   -0.2878 C   0  0  0  0  0  0  0  0  0  0  0  0
    3.1875    2.6744    0.4509 C   0  0  0  0  0  0  0  0  0  0  0  0
    2.2812    1.6790    0.8024 C   0  0  0  0  0  0  0  0  0  0  0  0
   -0.8967    0.4375   -0.4604 C   0  0  0  0  0  0  0  0  0  0  0  0
   -1.9161   -0.5318    0.0718 C   0  0  2  0  0  0  0  0  0  0  0  0
   -1.6959   -1.7928   -0.6445 C   0  0  0  0  0  0  0  0  0  0  0  0
  1  2  1  0
  2  3  2  0
  2  4  1  0
  5  4  1  6
  5  6  1  0
  6  7  1  0
  6  8  2  0
  5  9  1  0
  9 10  1  0
 11 10  1  1
 11 12  1  0
 12 13  1  1
 13 14  1  0
 14 15  1  0
 15 16  2  0
 16 17  1  0
 17 18  2  0
 17 19  1  0
 19 20  1  0
 20 21  1  0
 21 22  2  0
 22 23  1  0
 23 24  1  6
 24 25  2  0
 25 26  1  0
 26 27  2  0
 27 28  1  0
 28 29  1  0
 28 30  1  0
 27 31  1  0
 31 32  2  0
 23 33  1  0
 33 34  1  0
 34 35  1  6
 34  5  1  0
 34 11  1  0
 22 12  1  0
 32 24  1  0
 21 15  1  0
M  END
>  <zinc_id>  (599) 
ZINC000003920657

>  <smiles>  (599) 
CC(=O)O[C@]1(C(C)=O)CC[C@H]2[C@@H]3CCC4=CC(=O)CCC4=C3[C@@H](c3ccc(N(C)C)cc3)C[C@@]21C

$$$$

     RDKit          3D

 27 30  0  0  0  0  0  0  0  0999 V2000
    3.6019   -1.5541   -2.9945 C   0  0  0  0  0  0  0  0  0  0  0  0
    3.2808   -1.1663   -1.9378 C   0  0  0  0  0  0  0  0  0  0  0  0
    3.0087   -0.4910   -0.6893 C   0  0  2  0  0  0  0  0  0  0  0  0
    3.8227    0.6667   -0.5219 O   0  0  0  0  0  0  0  0  0  0  0  0
    4.1364    1.5373   -1.5550 C   0  0  0  0  0  0  0  0  0  0  0  0
    4.7684    2.8589   -1.2456 C   0  0  0  0  0  0  0  0  0  0  0  0
    3.4466    1.4811   -2.5905 O   0  0  0  0  0  0  0  0  0  0  0  0
    3.3079   -1.3571    0.5304 C   0  0  0  0  0  0  0  0  0  0  0  0
    2.0927   -1.2012    1.4481 C   0  0  0  0  0  0  0  0  0  0  0  0
    1.0402   -1.4538    0.2253 C   0  0  1  0  0  0  0  0  0  0  0  0
   -0.2342   -0.5970    0.9543 C   0  0  2  0  0  0  0  0  0  0  0  0
   -0.6383   -1.8664    1.8674 C   0  0  0  0  0  0  0  0  0  0  0  0
   -2.1282   -1.7713    1.9780 C   0  0  0  0  0  0  0  0  0  0  0  0
   -2.5465   -0.3886    1.6996 C   0  0  0  0  0  0  0  0  0  0  0  0
   -3.6615    0.1707    2.1837 C   0  0  0  0  0  0  0  0  0  0  0  0
   -4.6629    0.7014    1.2452 C   0  0  0  0  0  0  0  0  0  0  0  0
   -5.1614    1.8734    1.3082 N   0  0  0  0  0  0  0  0  0  0  0  0
   -6.1908    2.1858    0.4709 O   0  0  0  0  0  0  0  0  0  0  0  0
   -4.9406   -0.2238    0.1020 C   0  0  0  0  0  0  0  0  0  0  0  0
   -3.6813   -1.0165   -0.2408 C   0  0  0  0  0  0  0  0  0  0  0  0
   -2.4948    0.0507    0.1483 C   0  0  2  0  0  0  0  0  0  0  0  0
   -1.2695   -1.0533   -0.2945 C   0  0  1  0  0  0  0  0  0  0  0  0
   -0.6706    0.0268   -1.3322 C   0  0  0  0  0  0  0  0  0  0  0  0
    0.7097   -0.3266   -1.7405 C   0  0  0  0  0  0  0  0  0  0  0  0
    1.5875   -0.1211   -0.5461 C   0  0  2  0  0  0  0  0  0  0  0  0
    1.2789    1.0866    0.2186 C   0  0  0  0  0  0  0  0  0  0  0  0
    2.1983    1.4768    1.3087 C   0  0  0  0  0  0  0  0  0  0  0  0
  1  2  3  0
  3  2  1  6
  3  4  1  0
  4  5  1  0
  5  6  1  0
  5  7  2  0
  3  8  1  0
  8  9  1  0
 10  9  1  1
 10 11  1  0
 11 12  1  1
 12 13  1  0
 13 14  1  0
 14 15  2  0
 15 16  1  0
 16 17  2  0
 17 18  1  0
 16 19  1  0
 19 20  1  0
 21 20  1  6
 21 22  1  0
 22 23  1  6
 23 24  1  0
 24 25  1  0
 25 26  1  1
 26 27  1  0
 25  3  1  0
 25 10  1  0
 22 11  1  0
 21 14  1  0
M  END
>  <zinc_id>  (600) 
ZINC000003938695

>  <smiles>  (600) 
C#C[C@]1(OC(C)=O)CC[C@H]2[C@@H]3CCC4=C/C(=N/O)CC[C@@H]4[C@H]3CC[C@@]21CC

$$$$

     RDKit          3D

 31 34  0  0  0  0  0  0  0  0999 V2000
    8.2656    0.1478    2.5273 C   0  0  0  0  0  0  0  0  0  0  0  0
    7.9495   -0.5548    1.7547 C   0  0  0  0  0  0  0  0  0  0  0  0
    6.9121   -0.0433    0.7757 C   0  0  0  0  0  0  0  0  0  0  0  0
    7.4199   -0.3937   -0.5954 C   0  0  0  0  0  0  0  0  0  0  0  0
    6.4226   -1.1139   -1.4360 C   0  0  0  0  0  0  0  0  0  0  0  0
    6.2573   -0.3536   -2.7429 C   0  0  0  0  0  0  0  0  0  0  0  0
    5.9853    1.1070   -2.5298 C   0  0  0  0  0  0  0  0  0  0  0  0
    4.5204    1.3620   -2.1871 C   0  0  0  0  0  0  0  0  0  0  0  0
    3.9556    0.0320   -1.7746 C   0  0  0  0  0  0  0  0  0  0  0  0
    2.4880   -0.0550   -1.9480 C   0  0  0  0  0  0  0  0  0  0  0  0
    2.1026   -0.8657   -2.8382 O   0  0  0  0  0  0  0  0  0  0  0  0
    1.5238    0.3318   -1.0498 O   0  0  0  0  0  0  0  0  0  0  0  0
    0.7686   -0.8655   -0.3649 C   0  0  1  0  0  0  0  0  0  0  0  0
    1.0932   -0.2236    1.1454 C   0  0  0  0  0  0  0  0  0  0  0  0
   -0.1941   -0.0048    1.7623 C   0  0  0  0  0  0  0  0  0  0  0  0
   -1.2281   -0.9058    0.8782 C   0  0  1  0  0  0  0  0  0  0  0  0
   -2.5039    0.2118    1.0636 C   0  0  2  0  0  0  0  0  0  0  0  0
   -2.9737   -0.4619    2.4580 C   0  0  0  0  0  0  0  0  0  0  0  0
   -4.2160    0.3811    2.6830 C   0  0  0  0  0  0  0  0  0  0  0  0
   -5.2397    0.0830    1.6349 C   0  0  0  0  0  0  0  0  0  0  0  0
   -6.3428    0.8374    1.7858 C   0  0  0  0  0  0  0  0  0  0  0  0
   -7.4714    0.3339    0.9791 C   0  0  0  0  0  0  0  0  0  0  0  0
   -8.6623    0.3874    1.4170 O   0  0  0  0  0  0  0  0  0  0  0  0
   -7.0129   -0.8645    0.2223 C   0  0  0  0  0  0  0  0  0  0  0  0
   -5.7941   -0.7450   -0.5299 C   0  0  0  0  0  0  0  0  0  0  0  0
   -4.7726    0.3683    0.1132 C   0  0  2  0  0  0  0  0  0  0  0  0
   -3.5102   -0.7886    0.1510 C   0  0  1  0  0  0  0  0  0  0  0  0
   -2.9315   -0.2655   -1.2634 C   0  0  0  0  0  0  0  0  0  0  0  0
   -1.5296   -0.7319   -1.4516 C   0  0  0  0  0  0  0  0  0  0  0  0
   -0.7059   -0.1083   -0.4539 C   0  0  2  0  0  0  0  0  0  0  0  0
   -0.5758    1.2747   -0.1861 C   0  0  0  0  0  0  0  0  0  0  0  0
  1  2  1  0
  2  3  1  0
  3  4  1  0
  4  5  1  0
  5  6  1  0
  6  7  1  0
  7  8  1  0
  8  9  1  0
  9 10  1  0
 10 11  2  0
 10 12  1  0
 13 12  1  6
 13 14  1  0
 14 15  1  0
 16 15  1  1
 16 17  1  0
 17 18  1  1
 18 19  1  0
 19 20  1  0
 20 21  2  0
 21 22  1  0
 22 23  2  0
 22 24  1  0
 24 25  1  0
 26 25  1  6
 26 27  1  0
 27 28  1  6
 28 29  1  0
 29 30  1  0
 30 31  1  1
 30 13  1  0
 30 16  1  0
 27 17  1  0
 26 20  1  0
M  END
>  <zinc_id>  (601) 
ZINC000008214619

>  <smiles>  (601) 
CCCCCCCCCC(=O)O[C@H]1CC[C@H]2[C@@H]3CCC4=CC(=O)CC[C@@H]4[C@H]3CC[C@]12C

$$$$

     RDKit          3D

 38 41  0  0  0  0  0  0  0  0999 V2000
   -3.4449    3.2412   -2.8082 C   0  0  0  0  0  0  0  0  0  0  0  0
   -3.6967    2.5248   -1.7052 C   0  0  0  0  0  0  0  0  0  0  0  0
   -4.2034    3.0025   -0.5008 C   0  0  0  0  0  0  0  0  0  0  0  0
   -4.7841    1.8669    0.0542 C   0  0  0  0  0  0  0  0  0  0  0  0
   -3.9839    0.8179   -0.3344 N   0  0  0  0  0  0  0  0  0  0  0  0
   -4.5441   -0.4801   -0.0617 C   0  0  0  0  0  0  0  0  0  0  0  0
   -5.8610   -0.7698   -0.4156 C   0  0  0  0  0  0  0  0  0  0  0  0
   -6.3209   -2.0588   -0.5079 C   0  0  0  0  0  0  0  0  0  0  0  0
   -7.9561   -2.4763   -0.9304 Cl  0  0  0  0  0  0  0  0  0  0  0  0
   -5.3963   -3.0884   -0.4240 C   0  0  0  0  0  0  0  0  0  0  0  0
   -4.1665   -2.8506    0.1758 C   0  0  0  0  0  0  0  0  0  0  0  0
   -3.8181   -1.5185    0.3333 C   0  0  0  0  0  0  0  0  0  0  0  0
   -2.3932   -1.3086    1.0614 C   0  0  1  0  0  0  0  0  0  0  0  0
   -1.9883   -0.1127    0.1715 O   0  0  0  0  0  0  0  0  0  0  0  0
   -0.7933   -0.4865   -0.4629 C   0  0  0  0  0  0  0  0  0  0  0  0
    0.4076    0.0872   -0.0708 C   0  0  0  0  0  0  0  0  0  0  0  0
    1.6045   -0.5911   -0.2403 C   0  0  0  0  0  0  0  0  0  0  0  0
    2.8914    0.1135   -0.2883 C   0  0  0  0  0  0  0  0  0  0  0  0
    2.9964    1.3804    0.2175 C   0  0  0  0  0  0  0  0  0  0  0  0
    4.2504    1.9618    0.3212 C   0  0  0  0  0  0  0  0  0  0  0  0
    5.4173    1.2561    0.0599 C   0  0  0  0  0  0  0  0  0  0  0  0
    6.7248    1.6982    0.6321 C   0  0  0  0  0  0  0  0  0  0  0  0
    7.7768    0.9050   -0.3523 C   0  0  2  0  0  0  0  0  0  0  0  0
    8.4972    0.2182    0.8695 N   0  0  0  0  0  0  0  0  0  0  0  0
    8.8224    2.1295   -0.3797 C   0  0  0  0  0  0  0  0  0  0  0  0
    9.7244    1.8959   -1.2158 O   0  0  0  0  0  0  0  0  0  0  0  0
    9.1242    2.7592    0.7963 O   0  0  0  0  0  0  0  0  0  0  0  0
    5.2853   -0.1113   -0.1473 C   0  0  0  0  0  0  0  0  0  0  0  0
    4.0316   -0.6244   -0.4518 C   0  0  0  0  0  0  0  0  0  0  0  0
    1.4992   -1.8397   -0.7348 N   0  0  0  0  0  0  0  0  0  0  0  0
    0.4471   -2.2309   -1.4965 C   0  0  0  0  0  0  0  0  0  0  0  0
    0.3960   -3.6431   -1.7400 N   0  0  0  0  0  0  0  0  0  0  0  0
   -0.7115   -1.5727   -1.2452 N   0  0  0  0  0  0  0  0  0  0  0  0
   -2.9590   -0.3967    2.3010 C   0  0  0  0  0  0  0  0  0  0  0  0
   -2.3855    0.7896    2.3331 F   0  0  0  0  0  0  0  0  0  0  0  0
   -2.3463   -1.0793    3.3621 F   0  0  0  0  0  0  0  0  0  0  0  0
   -4.2452   -0.5935    2.5001 F   0  0  0  0  0  0  0  0  0  0  0  0
   -3.8979    1.1851   -1.6283 N   0  0  0  0  0  0  0  0  0  0  0  0
  1  2  1  0
  2  3  1  0
  3  4  2  0
  4  5  1  0
  5  6  1  0
  6  7  2  0
  7  8  1  0
  8  9  1  0
  8 10  2  0
 10 11  1  0
 11 12  2  0
 13 12  1  6
 13 14  1  0
 14 15  1  0
 15 16  2  0
 16 17  1  0
 17 18  1  0
 18 19  2  0
 19 20  1  0
 20 21  2  0
 21 22  1  0
 23 22  1  1
 23 24  1  0
 23 25  1  0
 25 26  2  0
 25 27  1  0
 21 28  1  0
 28 29  2  0
 17 30  2  0
 30 31  1  0
 31 32  1  0
 31 33  2  0
 13 34  1  0
 34 35  1  0
 34 36  1  0
 34 37  1  0
  5 38  1  0
 38  2  2  0
 12  6  1  0
 33 15  1  0
 29 18  1  0
M  END
>  <zinc_id>  (602) 
ZINC000084758235

>  <smiles>  (602) 
Cc1ccn(-c2cc(Cl)ccc2[C@@H](Oc2cc(-c3ccc(C[C@H](N)C(=O)O)cc3)nc(N)n2)C(F)(F)F)n1

$$$$

     RDKit          3D

 24 27  0  0  0  0  0  0  0  0999 V2000
   -3.5370    2.9380   -1.0222 C   0  0  0  0  0  0  0  0  0  0  0  0
   -3.5363    1.9176   -0.6889 C   0  0  0  0  0  0  0  0  0  0  0  0
   -3.7129    0.5022   -0.3166 C   0  0  2  0  0  0  0  0  0  0  0  0
   -4.7013   -0.1239   -1.0438 O   0  0  0  0  0  0  0  0  0  0  0  0
   -3.9383    0.3959    1.1890 C   0  0  0  0  0  0  0  0  0  0  0  0
   -2.5498    0.3472    1.8184 C   0  0  0  0  0  0  0  0  0  0  0  0
   -1.6444    0.8979    0.5656 C   0  0  1  0  0  0  0  0  0  0  0  0
   -0.3515   -0.1642    0.9251 C   0  0  2  0  0  0  0  0  0  0  0  0
    0.3311    0.9203    1.9096 C   0  0  0  0  0  0  0  0  0  0  0  0
    1.7143    1.1919    1.5599 C   0  0  0  0  0  0  0  0  0  0  0  0
    2.5005    0.2158    0.8487 C   0  0  0  0  0  0  0  0  0  0  0  0
    3.7740   -0.0710    1.0007 C   0  0  0  0  0  0  0  0  0  0  0  0
    4.5720   -0.6131   -0.0980 C   0  0  0  0  0  0  0  0  0  0  0  0
    5.6531   -1.2670    0.1960 N   0  0  0  0  0  0  0  0  0  0  0  0
    6.6807   -0.5427    0.7672 O   0  0  0  0  0  0  0  0  0  0  0  0
    3.8385   -1.0889   -1.3112 C   0  0  0  0  0  0  0  0  0  0  0  0
    2.5772   -0.2874   -1.4479 C   0  0  0  0  0  0  0  0  0  0  0  0
    1.7136   -0.7964   -0.1365 C   0  0  2  0  0  0  0  0  0  0  0  0
    0.4996    0.3758   -0.4318 C   0  0  1  0  0  0  0  0  0  0  0  0
   -0.2767   -0.6283   -1.4348 C   0  0  0  0  0  0  0  0  0  0  0  0
   -1.6474   -0.0086   -1.6897 C   0  0  0  0  0  0  0  0  0  0  0  0
   -2.3845   -0.1785   -0.4270 C   0  0  2  0  0  0  0  0  0  0  0  0
   -2.3040   -1.5028    0.2345 C   0  0  0  0  0  0  0  0  0  0  0  0
   -3.2705   -2.4297   -0.4210 C   0  0  0  0  0  0  0  0  0  0  0  0
  1  2  3  0
  3  2  1  6
  3  4  1  0
  3  5  1  0
  5  6  1  0
  7  6  1  1
  7  8  1  0
  8  9  1  1
  9 10  1  0
 10 11  1  0
 11 12  2  0
 12 13  1  0
 13 14  2  3
 14 15  1  0
 13 16  1  0
 16 17  1  0
 18 17  1  6
 18 19  1  0
 19 20  1  6
 20 21  1  0
 21 22  1  0
 22 23  1  1
 23 24  1  0
 22  3  1  0
 22  7  1  0
 19  8  1  0
 18 11  1  0
M  END
>  <zinc_id>  (603) 
ZINC000410428674

>  <smiles>  (603) 
C#C[C@]1(O)CC[C@H]2[C@@H]3CCC4=CC(=NO)CC[C@@H]4[C@H]3CC[C@@]21CC

$$$$

     RDKit          3D

 16 16  0  0  0  0  0  0  0  0999 V2000
   -0.2266   -0.8198    2.5146 O   0  0  0  0  0  0  0  0  0  0  0  0
   -1.3650   -0.5317    1.5441 P   0  0  0  0  0  0  0  0  0  0  0  0
   -2.2574    0.8134    2.0054 O   0  0  0  0  0  0  0  0  0  0  0  0
   -2.2991   -1.9235    1.4366 O   0  0  0  0  0  0  0  0  0  0  0  0
   -0.5649   -0.1743   -0.0565 C   0  0  0  0  0  0  0  0  0  0  0  0
   -0.1023   -1.3671   -0.5729 O   0  0  0  0  0  0  0  0  0  0  0  0
    0.5254    0.8224    0.2384 C   0  0  0  0  0  0  0  0  0  0  0  0
    1.8462    0.3280   -0.0253 N   0  0  0  0  0  0  0  0  0  0  0  0
    2.5611   -0.6091    0.6139 C   0  0  0  0  0  0  0  0  0  0  0  0
    3.6755   -0.8072   -0.1789 C   0  0  0  0  0  0  0  0  0  0  0  0
    3.7205    0.1357   -1.1436 N   0  0  0  0  0  0  0  0  0  0  0  0
    2.6777    0.9346   -0.9057 C   0  0  0  0  0  0  0  0  0  0  0  0
   -1.7738    0.6450   -1.1236 P   0  0  0  0  0  0  0  0  0  0  0  0
   -2.3970    1.7832   -0.3503 O   0  0  0  0  0  0  0  0  0  0  0  0
   -2.9622   -0.5076   -1.4863 O   0  0  0  0  0  0  0  0  0  0  0  0
   -1.0580    1.2780   -2.5097 O   0  0  0  0  0  0  0  0  0  0  0  0
  1  2  2  0
  2  3  1  0
  2  4  1  0
  2  5  1  0
  5  6  1  0
  5  7  1  0
  7  8  1  0
  8  9  1  0
  9 10  2  0
 10 11  1  0
 11 12  2  0
  5 13  1  0
 13 14  2  0
 13 15  1  0
 13 16  1  0
 12  8  1  0
M  END
>  <zinc_id>  (604) 
ZINC000003803652

>  <smiles>  (604) 
O=P(O)(O)C(O)(Cn1ccnc1)P(=O)(O)O

$$$$

     RDKit          3D

 22 23  0  0  0  0  0  0  0  0999 V2000
   -5.5596   -1.9267    0.9571 O   0  0  0  0  0  0  0  0  0  0  0  0
   -5.3767   -0.9296    0.2098 C   0  0  0  0  0  0  0  0  0  0  0  0
   -6.2956   -0.7327   -0.8011 O   0  0  0  0  0  0  0  0  0  0  0  0
   -4.0923   -0.2350    0.1409 C   0  0  0  0  0  0  0  0  0  0  0  0
   -2.9357   -0.8365   -0.3067 C   0  0  0  0  0  0  0  0  0  0  0  0
   -1.7903   -0.0702   -0.3935 C   0  0  0  0  0  0  0  0  0  0  0  0
   -0.5533   -0.5847   -0.9005 N   0  0  0  0  0  0  0  0  0  0  0  0
    0.5099   -0.5987   -0.2228 N   0  0  0  0  0  0  0  0  0  0  0  0
    1.7993   -0.2845   -0.7619 C   0  0  0  0  0  0  0  0  0  0  0  0
    2.0568    0.9641   -1.3156 C   0  0  0  0  0  0  0  0  0  0  0  0
    3.3029    1.5532   -1.2766 C   0  0  0  0  0  0  0  0  0  0  0  0
    4.3492    0.8768   -0.6834 C   0  0  0  0  0  0  0  0  0  0  0  0
    5.5428    1.5467   -0.4120 O   0  0  0  0  0  0  0  0  0  0  0  0
    4.1225   -0.3218   -0.0520 C   0  0  0  0  0  0  0  0  0  0  0  0
    5.1450   -0.8968    0.8175 C   0  0  0  0  0  0  0  0  0  0  0  0
    5.0077   -2.1183    1.0948 O   0  0  0  0  0  0  0  0  0  0  0  0
    5.6895   -0.0732    1.7989 O   0  0  0  0  0  0  0  0  0  0  0  0
    2.9336   -0.9761   -0.3509 C   0  0  0  0  0  0  0  0  0  0  0  0
   -1.9320    1.3105   -0.3363 C   0  0  0  0  0  0  0  0  0  0  0  0
   -2.8856    1.7938    0.5481 C   0  0  0  0  0  0  0  0  0  0  0  0
   -4.0220    1.0261    0.7105 C   0  0  0  0  0  0  0  0  0  0  0  0
   -5.0160    1.5136    1.5355 O   0  0  0  0  0  0  0  0  0  0  0  0
  1  2  2  0
  2  3  1  0
  2  4  1  0
  4  5  2  0
  5  6  1  0
  6  7  1  0
  7  8  2  0
  8  9  1  0
  9 10  2  0
 10 11  1  0
 11 12  2  0
 12 13  1  0
 12 14  1  0
 14 15  1  0
 15 16  2  0
 15 17  1  0
 14 18  2  0
  6 19  2  0
 19 20  1  0
 20 21  2  0
 21 22  1  0
 21  4  1  0
 18  9  1  0
M  END
>  <zinc_id>  (605) 
ZINC000003812865

>  <smiles>  (605) 
O=C(O)c1cc(/N=N/c2ccc(O)c(C(=O)O)c2)ccc1O

$$$$

     RDKit          3D

 22 23  0  0  0  0  0  0  0  0999 V2000
    4.2427    0.5397    0.8858 C   0  0  0  0  0  0  0  0  0  0  0  0
    4.4100    0.7220    0.3388 C   0  0  0  0  0  0  0  0  0  0  0  0
    4.8890    2.1527    0.1448 C   0  0  0  0  0  0  0  0  0  0  0  0
    5.5037   -0.1447   -0.2689 C   0  0  0  0  0  0  0  0  0  0  0  0
    3.2282    0.5239   -0.4837 N   0  0  0  0  0  0  0  0  0  0  0  0
    2.3991   -0.4743    0.1325 C   0  0  0  0  0  0  0  0  0  0  0  0
    2.2464   -1.6724   -1.0284 C   0  0  1  0  0  0  0  0  0  0  0  0
    3.2013   -2.5980   -0.2456 O   0  0  0  0  0  0  0  0  0  0  0  0
    0.9136   -2.3271   -0.2536 C   0  0  0  0  0  0  0  0  0  0  0  0
   -0.1474   -1.4648   -0.5855 O   0  0  0  0  0  0  0  0  0  0  0  0
   -0.7691   -0.7578    0.4169 C   0  0  0  0  0  0  0  0  0  0  0  0
   -0.4225   -0.8131    1.7597 C   0  0  0  0  0  0  0  0  0  0  0  0
   -0.7762    0.2799    2.5461 C   0  0  0  0  0  0  0  0  0  0  0  0
   -1.5117    1.3425    2.0246 C   0  0  0  0  0  0  0  0  0  0  0  0
   -2.1864    1.1665    0.8575 C   0  0  0  0  0  0  0  0  0  0  0  0
   -1.6548    0.2161   -0.0190 C   0  0  0  0  0  0  0  0  0  0  0  0
   -2.7126   -0.1575   -1.0219 C   0  0  0  0  0  0  0  0  0  0  0  0
   -3.9249   -0.3294    0.1021 C   0  0  2  0  0  0  0  0  0  0  0  0
   -4.9096   -0.8870   -0.9212 O   0  0  0  0  0  0  0  0  0  0  0  0
   -4.5365    1.3104   -0.0683 C   0  0  2  0  0  0  0  0  0  0  0  0
   -4.4152    1.3232   -1.5921 O   0  0  0  0  0  0  0  0  0  0  0  0
   -3.0671    2.0491    0.1265 C   0  0  0  0  0  0  0  0  0  0  0  0
  1  2  1  0
  2  3  1  0
  2  4  1  0
  2  5  1  0
  5  6  1  0
  7  6  1  1
  7  8  1  0
  7  9  1  0
  9 10  1  0
 10 11  1  0
 11 12  2  0
 12 13  1  0
 13 14  2  0
 14 15  1  0
 15 16  2  0
 16 17  1  0
 17 18  1  0
 18 19  1  6
 18 20  1  0
 20 21  1  6
 20 22  1  0
 16 11  1  0
 22 15  1  0
M  END
>  <zinc_id>  (606) 
ZINC000003812974

>  <smiles>  (606) 
CC(C)(C)NC[C@@H](O)COc1cccc2c1C[C@H](O)[C@H](O)C2

$$$$

     RDKit          3D

 27 30  0  0  0  0  0  0  0  0999 V2000
    2.6557   -2.9733   -0.7323 C   0  0  0  0  0  0  0  0  0  0  0  0
    3.2839   -1.8879    0.3054 C   0  0  2  0  0  0  0  0  0  0  0  0
    1.8707   -1.6601    1.0402 C   0  0  0  0  0  0  0  0  0  0  0  0
    1.0019   -1.3401   -0.2727 C   0  0  1  0  0  0  0  0  0  0  0  0
   -0.2094   -0.4916    0.5530 C   0  0  2  0  0  0  0  0  0  0  0  0
   -1.1512   -1.7899    0.7681 C   0  0  0  0  0  0  0  0  0  0  0  0
   -2.2409   -1.1000    1.5894 C   0  0  0  0  0  0  0  0  0  0  0  0
   -2.6898    0.1520    0.8951 C   0  0  0  0  0  0  0  0  0  0  0  0
   -3.8816    0.7041    1.1434 C   0  0  0  0  0  0  0  0  0  0  0  0
   -4.9290    0.7623    0.1067 C   0  0  0  0  0  0  0  0  0  0  0  0
   -5.7733    1.6811    0.0319 O   0  0  0  0  0  0  0  0  0  0  0  0
   -4.6515   -0.2091   -0.9630 C   0  0  0  0  0  0  0  0  0  0  0  0
   -3.3949   -0.6261   -1.1783 C   0  0  0  0  0  0  0  0  0  0  0  0
   -2.3458    0.2316   -0.5635 C   0  0  1  0  0  0  0  0  0  0  0  0
   -2.6782    1.6114   -1.1253 C   0  0  0  0  0  0  0  0  0  0  0  0
   -0.9503   -0.0778   -0.8095 C   0  0  2  0  0  0  0  0  0  0  0  0
   -0.8010   -0.9897   -1.7719 F   0  0  0  0  0  0  0  0  0  0  0  0
   -0.1862    1.2936   -1.3045 C   0  0  1  0  0  0  0  0  0  0  0  0
    0.0988    1.8103    0.0950 O   0  0  0  0  0  0  0  0  0  0  0  0
    1.2976    0.6303   -1.4816 C   0  0  0  0  0  0  0  0  0  0  0  0
    1.8403    0.0379   -0.3317 C   0  0  1  0  0  0  0  0  0  0  0  0
    2.0167    0.6366    0.9664 C   0  0  0  0  0  0  0  0  0  0  0  0
    3.1782   -0.6693   -0.8687 C   0  0  1  0  0  0  0  0  0  0  0  0
    4.1613    0.3218   -0.0833 C   0  0  0  0  0  0  0  0  0  0  0  0
    5.0979   -0.1118    0.5063 O   0  0  0  0  0  0  0  0  0  0  0  0
    4.0415    1.7699   -0.4532 C   0  0  0  0  0  0  0  0  0  0  0  0
    5.3386    2.2837   -0.5625 O   0  0  0  0  0  0  0  0  0  0  0  0
  2  1  1  6
  2  3  1  0
  4  3  1  1
  4  5  1  0
  5  6  1  1
  6  7  1  0
  7  8  1  0
  8  9  2  0
  9 10  1  0
 10 11  2  0
 10 12  1  0
 12 13  2  0
 13 14  1  0
 14 15  1  6
 14 16  1  0
 16 17  1  6
 16 18  1  0
 18 19  1  1
 18 20  1  0
 20 21  1  0
 21 22  1  1
 21 23  1  0
 23 24  1  1
 24 25  2  0
 24 26  1  0
 26 27  1  0
 23  2  1  0
 21  4  1  0
 16  5  1  0
 14  8  1  0
M  END
>  <zinc_id>  (607) 
ZINC000004212854

>  <smiles>  (607) 
C[C@@H]1C[C@H]2[C@@H]3CCC4=CC(=O)C=C[C@]4(C)[C@@]3(F)[C@@H](O)C[C@]2(C)[C@H]1C(=O)CO

$$$$

     RDKit          3D

 23 24  0  0  0  0  0  0  0  0999 V2000
    1.7410    0.0694    2.8311 C   0  0  0  0  0  0  0  0  0  0  0  0
    1.4546   -0.3790    1.4712 N   0  0  0  0  0  0  0  0  0  0  0  0
    2.2487   -0.3319    0.3845 C   0  0  0  0  0  0  0  0  0  0  0  0
    3.6815    0.0890    0.4457 C   0  0  0  0  0  0  0  0  0  0  0  0
    3.8222    1.3447   -0.3986 C   0  0  0  0  0  0  0  0  0  0  0  0
    4.7446    1.0176   -1.5657 C   0  0  0  0  0  0  0  0  0  0  0  0
    6.0059    0.4258   -1.0241 C   0  0  0  0  0  0  0  0  0  0  0  0
    6.5364    1.0594   -0.0622 O   0  0  0  0  0  0  0  0  0  0  0  0
    6.1720   -0.9605   -0.9999 O   0  0  0  0  0  0  0  0  0  0  0  0
    1.4487   -0.2768   -0.7078 N   0  0  0  0  0  0  0  0  0  0  0  0
    0.1799   -0.5954   -0.3527 C   0  0  0  0  0  0  0  0  0  0  0  0
   -1.0613   -0.4332   -0.9576 C   0  0  0  0  0  0  0  0  0  0  0  0
   -2.1971   -0.5903   -0.1725 C   0  0  0  0  0  0  0  0  0  0  0  0
   -3.4110    0.1168   -0.4516 N   0  0  0  0  0  0  0  0  0  0  0  0
   -3.6803    1.2908    0.3742 C   0  0  0  0  0  0  0  0  0  0  0  0
   -3.6520    2.5497   -0.4566 C   0  0  0  0  0  0  0  0  0  0  0  0
   -5.2859    3.2411   -0.6522 Cl  0  0  0  0  0  0  0  0  0  0  0  0
   -4.5506   -0.7103   -0.8379 C   0  0  0  0  0  0  0  0  0  0  0  0
   -4.9083   -1.6591    0.3000 C   0  0  0  0  0  0  0  0  0  0  0  0
   -6.6926   -1.6968    0.3824 Cl  0  0  0  0  0  0  0  0  0  0  0  0
   -2.0484   -1.3136    1.0043 C   0  0  0  0  0  0  0  0  0  0  0  0
   -0.8264   -1.3910    1.6617 C   0  0  0  0  0  0  0  0  0  0  0  0
    0.2784   -0.8665    1.0070 C   0  0  0  0  0  0  0  0  0  0  0  0
  1  2  1  0
  2  3  1  0
  3  4  1  0
  4  5  1  0
  5  6  1  0
  6  7  1  0
  7  8  2  0
  7  9  1  0
  3 10  2  0
 10 11  1  0
 11 12  2  0
 12 13  1  0
 13 14  1  0
 14 15  1  0
 15 16  1  0
 16 17  1  0
 14 18  1  0
 18 19  1  0
 19 20  1  0
 13 21  2  0
 21 22  1  0
 22 23  2  0
 23  2  1  0
 23 11  1  0
M  END
>  <zinc_id>  (608) 
ZINC000004214955

>  <smiles>  (608) 
Cn1c(CCCC(=O)O)nc2cc(N(CCCl)CCCl)ccc21

$$$$

     RDKit          3D

 20 20  0  0  0  0  0  0  0  0999 V2000
    4.7091   -1.1546    0.7704 C   0  0  0  0  0  0  0  0  0  0  0  0
    3.6493   -0.5572   -0.0860 C   0  0  0  0  0  0  0  0  0  0  0  0
    3.7455   -0.4265   -1.3252 O   0  0  0  0  0  0  0  0  0  0  0  0
    2.4692   -0.1218    0.5514 N   0  0  0  0  0  0  0  0  0  0  0  0
    1.2563    0.1642   -0.1256 C   0  0  0  0  0  0  0  0  0  0  0  0
    0.3798   -0.9017   -0.2966 C   0  0  0  0  0  0  0  0  0  0  0  0
    1.2312   -2.7021   -1.0091 I   0  0  0  0  0  0  0  0  0  0  0  0
   -0.9979   -0.7340   -0.2098 C   0  0  0  0  0  0  0  0  0  0  0  0
   -1.8525   -1.7228   -0.7863 N   0  0  0  0  0  0  0  0  0  0  0  0
   -2.3768   -2.7385    0.0730 C   0  0  0  0  0  0  0  0  0  0  0  0
   -3.7837   -3.2279   -0.0554 C   0  0  0  0  0  0  0  0  0  0  0  0
   -1.5166   -3.3328    0.7837 O   0  0  0  0  0  0  0  0  0  0  0  0
   -1.5204    0.5421   -0.0321 C   0  0  0  0  0  0  0  0  0  0  0  0
   -3.5415    0.7088    0.4819 I   0  0  0  0  0  0  0  0  0  0  0  0
   -0.6622    1.6338   -0.0801 C   0  0  0  0  0  0  0  0  0  0  0  0
   -1.2156    2.9784    0.1247 C   0  0  0  0  0  0  0  0  0  0  0  0
   -0.4400    3.9728    0.0357 O   0  0  0  0  0  0  0  0  0  0  0  0
   -2.2566    3.1017    1.0386 O   0  0  0  0  0  0  0  0  0  0  0  0
    0.7142    1.4419   -0.1008 C   0  0  0  0  0  0  0  0  0  0  0  0
    2.0093    3.0763    0.2478 I   0  0  0  0  0  0  0  0  0  0  0  0
  1  2  1  0
  2  3  2  0
  2  4  1  0
  4  5  1  0
  5  6  2  0
  6  7  1  0
  6  8  1  0
  8  9  1  0
  9 10  1  0
 10 11  1  0
 10 12  2  0
  8 13  2  0
 13 14  1  0
 13 15  1  0
 15 16  1  0
 16 17  2  0
 16 18  1  0
 15 19  2  0
 19 20  1  0
 19  5  1  0
M  END
>  <zinc_id>  (609) 
ZINC000004097476

>  <smiles>  (609) 
CC(=O)Nc1c(I)c(NC(C)=O)c(I)c(C(=O)O)c1I

$$$$

     RDKit          3D

 26 28  0  0  0  0  0  0  0  0999 V2000
   -4.9046    3.3508   -0.2735 C   0  0  0  0  0  0  0  0  0  0  0  0
   -4.8818    2.1098   -0.9360 O   0  0  0  0  0  0  0  0  0  0  0  0
   -4.8385    0.8874   -0.2789 C   0  0  0  0  0  0  0  0  0  0  0  0
   -5.9451    0.0648   -0.2764 C   0  0  0  0  0  0  0  0  0  0  0  0
   -5.8867   -1.2219    0.2267 C   0  0  0  0  0  0  0  0  0  0  0  0
   -4.7293   -1.6242    0.7951 N   0  0  0  0  0  0  0  0  0  0  0  0
   -3.5657   -0.9739    0.5762 C   0  0  0  0  0  0  0  0  0  0  0  0
   -2.2925   -1.4000    1.2346 C   0  0  0  0  0  0  0  0  0  0  0  0
   -1.2622   -2.3223    0.0191 S   0  0  0  0  0  0  0  0  0  0  0  0
   -0.7169   -3.4482    0.9468 O   0  0  0  0  0  0  0  0  0  0  0  0
    0.1803   -1.2326   -0.0735 C   0  0  0  0  0  0  0  0  0  0  0  0
    0.7231   -0.8378   -1.2307 N   0  0  0  0  0  0  0  0  0  0  0  0
    1.9042   -0.2310   -0.9658 C   0  0  0  0  0  0  0  0  0  0  0  0
    2.9238    0.1024   -1.8342 C   0  0  0  0  0  0  0  0  0  0  0  0
    4.2014    0.2248   -1.3024 C   0  0  0  0  0  0  0  0  0  0  0  0
    4.4170    0.3547    0.0638 C   0  0  0  0  0  0  0  0  0  0  0  0
    5.6594    0.1363    0.6223 O   0  0  0  0  0  0  0  0  0  0  0  0
    6.7692    0.9777    0.4898 C   0  0  0  0  0  0  0  0  0  0  0  0
    6.4800    2.3119    0.5608 F   0  0  0  0  0  0  0  0  0  0  0  0
    7.6197    0.6372   -0.5250 F   0  0  0  0  0  0  0  0  0  0  0  0
    3.3165    0.1430    0.8740 C   0  0  0  0  0  0  0  0  0  0  0  0
    2.0848   -0.2358    0.4113 C   0  0  0  0  0  0  0  0  0  0  0  0
    1.0108   -0.8955    0.9110 N   0  0  0  0  0  0  0  0  0  0  0  0
   -3.6372    0.3449    0.1551 C   0  0  0  0  0  0  0  0  0  0  0  0
   -2.4506    1.0491   -0.0165 O   0  0  0  0  0  0  0  0  0  0  0  0
   -2.1790    1.7284   -1.2170 C   0  0  0  0  0  0  0  0  0  0  0  0
  1  2  1  0
  2  3  1  0
  3  4  2  0
  4  5  1  0
  5  6  2  0
  6  7  1  0
  7  8  1  0
  9  8  1  1
  9 10  2  0
  9 11  1  0
 11 12  2  0
 12 13  1  0
 13 14  2  0
 14 15  1  0
 15 16  2  0
 16 17  1  0
 17 18  1  0
 18 19  1  0
 18 20  1  0
 16 21  1  0
 21 22  2  0
 22 23  1  0
  7 24  2  0
 24 25  1  0
 25 26  1  0
 24  3  1  0
 23 11  1  0
 22 13  1  0
M  END
>  <zinc_id>  (610) 
ZINC000004099200

>  <smiles>  (610) 
COc1ccnc(C[S@](=O)c2nc3ccc(OC(F)F)cc3[nH]2)c1OC

$$$$

     RDKit          3D

 36 39  0  0  0  0  0  0  0  0999 V2000
   -2.5546   -4.4998   -0.1856 C   0  0  0  0  0  0  0  0  0  0  0  0
   -2.2312   -4.4946    0.8299 C   0  0  0  0  0  0  0  0  0  0  0  0
   -2.3293   -3.2666    1.7147 C   0  0  0  0  0  0  0  0  0  0  0  0
   -2.7962   -2.0862    0.9184 C   0  0  0  0  0  0  0  0  0  0  0  0
   -3.3559   -2.3313   -0.1979 O   0  0  0  0  0  0  0  0  0  0  0  0
   -2.2534   -0.8033    1.0666 O   0  0  0  0  0  0  0  0  0  0  0  0
   -2.0922    0.0674   -0.0341 C   0  0  2  0  0  0  0  0  0  0  0  0
   -3.1786    1.0417   -0.1449 C   0  0  0  0  0  0  0  0  0  0  0  0
   -2.8761    2.2330   -0.1422 O   0  0  0  0  0  0  0  0  0  0  0  0
   -4.5273    0.6564    0.3416 C   0  0  0  0  0  0  0  0  0  0  0  0
   -5.5187    1.3889   -0.3296 O   0  0  0  0  0  0  0  0  0  0  0  0
   -5.9835    2.5740    0.2013 C   0  0  0  0  0  0  0  0  0  0  0  0
   -7.0267    3.4095   -0.4255 C   0  0  0  0  0  0  0  0  0  0  0  0
   -5.3297    3.0792    1.1602 O   0  0  0  0  0  0  0  0  0  0  0  0
   -2.0404   -0.9013   -1.2312 C   0  0  0  0  0  0  0  0  0  0  0  0
   -0.6040   -1.4419   -1.1703 C   0  0  0  0  0  0  0  0  0  0  0  0
   -0.0902   -0.7810    0.2190 C   0  0  1  0  0  0  0  0  0  0  0  0
    1.4771   -0.4986   -0.3564 C   0  0  2  0  0  0  0  0  0  0  0  0
    2.0159   -1.7286    0.5532 C   0  0  0  0  0  0  0  0  0  0  0  0
    3.4826   -2.0757   -0.1076 C   0  0  2  0  0  0  0  0  0  0  0  0
    4.1162   -2.1592    1.2664 F   0  0  0  0  0  0  0  0  0  0  0  0
    3.9420   -0.5400   -0.3081 C   0  0  0  0  0  0  0  0  0  0  0  0
    5.2128   -0.4080   -0.7146 C   0  0  0  0  0  0  0  0  0  0  0  0
    5.9846    0.7644   -0.2615 C   0  0  0  0  0  0  0  0  0  0  0  0
    7.1226    0.9808   -0.7365 O   0  0  0  0  0  0  0  0  0  0  0  0
    5.5995    1.1288    1.1151 C   0  0  0  0  0  0  0  0  0  0  0  0
    4.3585    0.8436    1.5421 C   0  0  0  0  0  0  0  0  0  0  0  0
    3.3943    0.5484    0.4580 C   0  0  1  0  0  0  0  0  0  0  0  0
    3.6549    1.7447   -0.4789 C   0  0  0  0  0  0  0  0  0  0  0  0
    1.9611    0.5449    0.7727 C   0  0  2  0  0  0  0  0  0  0  0  0
    1.5143    0.2085    1.9624 F   0  0  0  0  0  0  0  0  0  0  0  0
    1.3321    2.0060    0.3744 C   0  0  1  0  0  0  0  0  0  0  0  0
    1.2955    1.7336   -1.1210 O   0  0  0  0  0  0  0  0  0  0  0  0
   -0.2220    1.5765    0.6956 C   0  0  0  0  0  0  0  0  0  0  0  0
   -0.7169    0.6357   -0.2189 C   0  0  2  0  0  0  0  0  0  0  0  0
   -0.7371    0.8500   -1.6755 C   0  0  0  0  0  0  0  0  0  0  0  0
  1  2  1  0
  2  3  1  0
  3  4  1  0
  4  5  2  0
  4  6  1  0
  7  6  1  1
  7  8  1  0
  8  9  2  0
  8 10  1  0
 10 11  1  0
 11 12  1  0
 12 13  1  0
 12 14  2  0
  7 15  1  0
 15 16  1  0
 17 16  1  6
 17 18  1  0
 18 19  1  1
 19 20  1  0
 20 21  1  1
 20 22  1  0
 22 23  2  0
 23 24  1  0
 24 25  2  0
 24 26  1  0
 26 27  2  0
 27 28  1  0
 28 29  1  6
 28 30  1  0
 30 31  1  1
 30 32  1  0
 32 33  1  6
 32 34  1  0
 34 35  1  0
 35 36  1  6
 35  7  1  0
 35 17  1  0
 30 18  1  0
 28 22  1  0
M  END
>  <zinc_id>  (611) 
ZINC000004212945

>  <smiles>  (611) 
CCCC(=O)O[C@]1(C(=O)COC(C)=O)CC[C@H]2[C@@H]3C[C@H](F)C4=CC(=O)C=C[C@]4(C)[C@@]3(F)[C@@H](O)C[C@@]21C

$$$$

     RDKit          3D

 33 36  0  0  0  0  0  0  0  0999 V2000
    4.2411   -2.5661   -1.9525 C   0  0  0  0  0  0  0  0  0  0  0  0
    4.0778   -1.0942   -1.6559 C   0  0  0  0  0  0  0  0  0  0  0  0
    2.9503   -0.8454   -0.7103 C   0  0  0  0  0  0  0  0  0  0  0  0
    1.8967   -0.0342   -0.8784 N   0  0  0  0  0  0  0  0  0  0  0  0
    0.9925   -0.4397    0.0049 N   0  0  0  0  0  0  0  0  0  0  0  0
   -0.2599    0.2810    0.2021 C   0  0  0  0  0  0  0  0  0  0  0  0
   -1.2927   -0.6045    0.8449 C   0  0  0  0  0  0  0  0  0  0  0  0
   -1.7030   -1.7560   -0.0303 C   0  0  0  0  0  0  0  0  0  0  0  0
   -2.9379   -1.5187   -0.7355 N   0  0  0  0  0  0  0  0  0  0  0  0
   -2.7510   -0.3714   -1.5765 C   0  0  0  0  0  0  0  0  0  0  0  0
   -3.9806    0.4608   -1.7735 C   0  0  0  0  0  0  0  0  0  0  0  0
   -4.6620    0.7706   -0.5203 N   0  0  0  0  0  0  0  0  0  0  0  0
   -6.0708    1.0027   -0.6440 C   0  0  0  0  0  0  0  0  0  0  0  0
   -6.4966    2.2006   -1.1454 C   0  0  0  0  0  0  0  0  0  0  0  0
   -7.7565    2.6925   -0.9070 C   0  0  0  0  0  0  0  0  0  0  0  0
   -8.6253    1.8721   -0.2107 C   0  0  0  0  0  0  0  0  0  0  0  0
   -8.3053    0.5760    0.1480 C   0  0  0  0  0  0  0  0  0  0  0  0
   -9.2596   -0.3378    1.2896 Cl  0  0  0  0  0  0  0  0  0  0  0  0
   -7.0085    0.1549   -0.1063 C   0  0  0  0  0  0  0  0  0  0  0  0
   -4.2345   -0.0221    0.6302 C   0  0  0  0  0  0  0  0  0  0  0  0
   -4.0804   -1.4370    0.1302 C   0  0  0  0  0  0  0  0  0  0  0  0
    1.5835   -1.1693    0.9539 C   0  0  0  0  0  0  0  0  0  0  0  0
    0.9525   -1.8415    1.8146 O   0  0  0  0  0  0  0  0  0  0  0  0
    2.8602   -1.3280    0.5442 N   0  0  0  0  0  0  0  0  0  0  0  0
    3.9182   -1.9197    1.3532 C   0  0  0  0  0  0  0  0  0  0  0  0
    4.7990   -0.7759    1.8079 C   0  0  0  0  0  0  0  0  0  0  0  0
    5.8389   -0.6208    0.8774 O   0  0  0  0  0  0  0  0  0  0  0  0
    6.7367    0.4472    0.8905 C   0  0  0  0  0  0  0  0  0  0  0  0
    8.0311    0.1903    0.4564 C   0  0  0  0  0  0  0  0  0  0  0  0
    8.8514    1.1702   -0.0633 C   0  0  0  0  0  0  0  0  0  0  0  0
    8.4242    2.4786    0.0896 C   0  0  0  0  0  0  0  0  0  0  0  0
    7.0556    2.7083    0.1312 C   0  0  0  0  0  0  0  0  0  0  0  0
    6.2149    1.6767    0.5088 C   0  0  0  0  0  0  0  0  0  0  0  0
  1  2  1  0
  2  3  1  0
  3  4  2  0
  4  5  1  0
  5  6  1  0
  6  7  1  0
  7  8  1  0
  8  9  1  0
  9 10  1  0
 10 11  1  0
 11 12  1  0
 12 13  1  0
 13 14  2  0
 14 15  1  0
 15 16  2  0
 16 17  1  0
 17 18  1  0
 17 19  2  0
 12 20  1  0
 20 21  1  0
  5 22  1  0
 22 23  2  0
 22 24  1  0
 24 25  1  0
 25 26  1  0
 26 27  1  0
 27 28  1  0
 28 29  2  0
 29 30  1  0
 30 31  2  0
 31 32  1  0
 32 33  2  0
 24  3  1  0
 33 28  1  0
 21  9  1  0
 19 13  1  0
M  END
>  <zinc_id>  (612) 
ZINC000000538065

>  <smiles>  (612) 
CCc1nn(CCCN2CCN(c3cccc(Cl)c3)CC2)c(=O)n1CCOc1ccccc1

$$$$

     RDKit          3D

 30 34  0  0  0  0  0  0  0  0999 V2000
   -3.6690    1.6079   -3.0932 C   0  0  0  0  0  0  0  0  0  0  0  0
   -3.9598    1.2723   -1.6774 C   0  0  0  0  0  0  0  0  0  0  0  0
   -5.1516    1.5322   -1.0887 N   0  0  0  0  0  0  0  0  0  0  0  0
   -5.4838    0.9009    0.0617 C   0  0  0  0  0  0  0  0  0  0  0  0
   -4.7300   -0.0973    0.5812 N   0  0  0  0  0  0  0  0  0  0  0  0
   -3.4917   -0.2919    0.1068 C   0  0  0  0  0  0  0  0  0  0  0  0
   -2.8098   -1.2960    0.4704 O   0  0  0  0  0  0  0  0  0  0  0  0
   -3.0959    0.4265   -1.0131 C   0  0  0  0  0  0  0  0  0  0  0  0
   -1.6312    0.5437   -1.2896 C   0  0  0  0  0  0  0  0  0  0  0  0
   -1.0573    1.4009   -0.1718 C   0  0  0  0  0  0  0  0  0  0  0  0
    0.3426    1.0986   -0.0181 N   0  0  0  0  0  0  0  0  0  0  0  0
    0.7521   -0.1087   -0.6714 C   0  0  0  0  0  0  0  0  0  0  0  0
    1.0929   -1.2335    0.2586 C   0  0  0  0  0  0  0  0  0  0  0  0
    2.1683   -0.8400    1.2345 C   0  0  0  0  0  0  0  0  0  0  0  0
    3.4969   -1.3854    0.8158 C   0  0  0  0  0  0  0  0  0  0  0  0
    3.6286   -2.4613    0.0018 N   0  0  0  0  0  0  0  0  0  0  0  0
    4.8242   -2.4987   -0.4968 O   0  0  0  0  0  0  0  0  0  0  0  0
    5.3569   -1.3161   -0.3855 C   0  0  0  0  0  0  0  0  0  0  0  0
    6.5176   -0.7687   -0.8617 C   0  0  0  0  0  0  0  0  0  0  0  0
    6.8427    0.5165   -0.4711 C   0  0  0  0  0  0  0  0  0  0  0  0
    8.0218    1.0065   -0.9235 F   0  0  0  0  0  0  0  0  0  0  0  0
    6.1473    1.1926    0.5114 C   0  0  0  0  0  0  0  0  0  0  0  0
    4.9436    0.6646    0.9467 C   0  0  0  0  0  0  0  0  0  0  0  0
    4.5465   -0.5572    0.4457 C   0  0  0  0  0  0  0  0  0  0  0  0
    2.2089    0.6579    1.4267 C   0  0  0  0  0  0  0  0  0  0  0  0
    0.8168    1.2327    1.3341 C   0  0  0  0  0  0  0  0  0  0  0  0
   -5.4452   -1.1895    1.2363 C   0  0  0  0  0  0  0  0  0  0  0  0
   -6.8232   -1.2536    0.5976 C   0  0  0  0  0  0  0  0  0  0  0  0
   -7.6111    0.0089    0.8242 C   0  0  0  0  0  0  0  0  0  0  0  0
   -6.7482    1.2352    0.7451 C   0  0  0  0  0  0  0  0  0  0  0  0
  1  2  1  0
  2  3  1  0
  3  4  2  0
  4  5  1  0
  5  6  1  0
  6  7  2  0
  6  8  1  0
  8  9  1  0
  9 10  1  0
 10 11  1  0
 11 12  1  0
 12 13  1  0
 13 14  1  0
 14 15  1  0
 15 16  2  0
 16 17  1  0
 17 18  1  0
 18 19  2  0
 19 20  1  0
 20 21  1  0
 20 22  2  0
 22 23  1  0
 23 24  2  0
 14 25  1  0
 25 26  1  0
  5 27  1  0
 27 28  1  0
 28 29  1  0
 29 30  1  0
  8  2  2  0
 26 11  1  0
 30  4  1  0
 24 15  1  0
 24 18  1  0
M  END
>  <zinc_id>  (613) 
ZINC000000538312

>  <smiles>  (613) 
Cc1nc2n(c(=O)c1CCN1CCC(c3noc4cc(F)ccc34)CC1)CCCC2

$$$$

     RDKit          3D

 22 24  0  0  0  0  0  0  0  0999 V2000
    4.6792    0.8937    0.9534 N   0  0  0  0  0  0  0  0  0  0  0  0
    3.8194    1.2574    0.0883 S   0  0  0  0  0  0  0  0  0  0  0  0
    4.4368    1.4029   -1.2852 O   0  0  0  0  0  0  0  0  0  0  0  0
    3.2310    2.5988    0.4296 O   0  0  0  0  0  0  0  0  0  0  0  0
    2.5368    0.0684   -0.0863 C   0  0  0  0  0  0  0  0  0  0  0  0
    1.2021    0.3817    0.0042 C   0  0  0  0  0  0  0  0  0  0  0  0
    0.2270   -0.5510   -0.3292 C   0  0  0  0  0  0  0  0  0  0  0  0
   -1.1095   -0.5646    0.3443 C   0  0  2  0  0  0  0  0  0  0  0  0
   -0.9366   -0.5147    1.7239 O   0  0  0  0  0  0  0  0  0  0  0  0
   -1.8002   -1.7822    0.0044 N   0  0  0  0  0  0  0  0  0  0  0  0
   -3.1405   -1.5141   -0.3777 C   0  0  0  0  0  0  0  0  0  0  0  0
   -4.0688   -2.3689   -0.4216 O   0  0  0  0  0  0  0  0  0  0  0  0
   -3.2780   -0.0641   -0.3153 C   0  0  0  0  0  0  0  0  0  0  0  0
   -4.4311    0.6949   -0.2079 C   0  0  0  0  0  0  0  0  0  0  0  0
   -4.3541    2.0079    0.2074 C   0  0  0  0  0  0  0  0  0  0  0  0
   -3.1292    2.6306    0.0486 C   0  0  0  0  0  0  0  0  0  0  0  0
   -1.9839    1.8494    0.0988 C   0  0  0  0  0  0  0  0  0  0  0  0
   -2.0105    0.4850   -0.1649 C   0  0  0  0  0  0  0  0  0  0  0  0
    0.7037   -1.7271   -0.8964 C   0  0  0  0  0  0  0  0  0  0  0  0
    2.0338   -2.1139   -0.7857 C   0  0  0  0  0  0  0  0  0  0  0  0
    2.9470   -1.2551   -0.1861 C   0  0  0  0  0  0  0  0  0  0  0  0
    4.4256   -1.8149    0.5521 Cl  0  0  0  0  0  0  0  0  0  0  0  0
  1  2  1  0
  2  3  2  0
  2  4  2  0
  2  5  1  0
  5  6  2  0
  6  7  1  0
  8  7  1  6
  8  9  1  0
  8 10  1  0
 10 11  1  0
 11 12  2  0
 11 13  1  0
 13 14  2  0
 14 15  1  0
 15 16  2  0
 16 17  1  0
 17 18  2  0
  7 19  2  0
 19 20  1  0
 20 21  2  0
 21 22  1  0
 21  5  1  0
 18  8  1  0
 18 13  1  0
M  END
>  <zinc_id>  (614) 
ZINC000000020253

>  <smiles>  (614) 
NS(=O)(=O)c1cc([C@]2(O)NC(=O)c3ccccc32)ccc1Cl

$$$$

     RDKit          3D

 17 18  0  0  0  0  0  0  0  0999 V2000
   -5.2908    1.7899    0.3909 C   0  0  0  0  0  0  0  0  0  0  0  0
   -4.8122    0.6104   -0.2519 O   0  0  0  0  0  0  0  0  0  0  0  0
   -3.4524    0.4220   -0.3586 C   0  0  0  0  0  0  0  0  0  0  0  0
   -2.6182    1.5154   -0.5565 C   0  0  0  0  0  0  0  0  0  0  0  0
   -1.2878    1.3986   -0.2399 C   0  0  0  0  0  0  0  0  0  0  0  0
   -0.7779    0.1503    0.0078 C   0  0  0  0  0  0  0  0  0  0  0  0
    0.5474    0.0595    0.4074 C   0  0  0  0  0  0  0  0  0  0  0  0
    1.2632   -1.1150    0.2196 C   0  0  0  0  0  0  0  0  0  0  0  0
    2.7500   -1.1429    0.1945 C   0  0  0  0  0  0  0  0  0  0  0  0
    3.2035    0.3118    0.1428 C   0  0  0  0  0  0  0  0  0  0  0  0
    4.6950    0.4185    0.2152 C   0  0  0  0  0  0  0  0  0  0  0  0
    5.2336    1.4168    1.1953 C   0  0  0  0  0  0  0  0  0  0  0  0
    5.2693    0.3904   -0.8717 O   0  0  0  0  0  0  0  0  0  0  0  0
    0.5011   -2.2497   -0.0093 C   0  0  0  0  0  0  0  0  0  0  0  0
   -0.8661   -2.1826   -0.2406 C   0  0  0  0  0  0  0  0  0  0  0  0
   -1.4945   -0.9672   -0.3392 C   0  0  0  0  0  0  0  0  0  0  0  0
   -2.8631   -0.8261   -0.5142 C   0  0  0  0  0  0  0  0  0  0  0  0
  1  2  1  0
  2  3  1  0
  3  4  2  0
  4  5  1  0
  5  6  2  0
  6  7  1  0
  7  8  2  0
  8  9  1  0
  9 10  1  0
 10 11  1  0
 11 12  1  0
 11 13  2  0
  8 14  1  0
 14 15  2  0
 15 16  1  0
 16 17  2  0
 17  3  1  0
 16  6  1  0
M  END
>  <zinc_id>  (615) 
ZINC000000020221

>  <smiles>  (615) 
COc1ccc2cc(CCC(C)=O)ccc2c1

$$$$

     RDKit          3D

 39 39  0  0  0  0  0  0  0  0999 V2000
    9.7567   -0.9945   -0.5170 C   0  0  0  0  0  0  0  0  0  0  0  0
    9.9501   -0.3901   -0.3955 O   0  0  0  0  0  0  0  0  0  0  0  0
    9.5212    0.8575   -0.8086 C   0  0  0  0  0  0  0  0  0  0  0  0
    8.0080    0.9572   -0.7896 C   0  0  0  0  0  0  0  0  0  0  0  0
    7.4343    0.4278   -2.0721 C   0  0  0  0  0  0  0  0  0  0  0  0
    6.2929   -0.3734   -1.8951 O   0  0  0  0  0  0  0  0  0  0  0  0
    5.3754   -0.1955   -0.8609 C   0  0  0  0  0  0  0  0  0  0  0  0
    4.0245    0.0384   -1.0896 C   0  0  0  0  0  0  0  0  0  0  0  0
    3.1140   -0.0066   -0.0400 C   0  0  0  0  0  0  0  0  0  0  0  0
    1.7576   -0.5852   -0.1594 C   0  0  0  0  0  0  0  0  0  0  0  0
    0.8856    0.5133   -1.0389 C   0  0  1  0  0  0  0  0  0  0  0  0
   -0.5411    0.0624   -0.3351 C   0  0  0  0  0  0  0  0  0  0  0  0
   -0.5118   -1.5315   -0.7538 C   0  0  2  0  0  0  0  0  0  0  0  0
   -1.7790   -1.3885   -1.6890 N   0  0  0  0  0  0  0  0  0  0  0  0
   -1.4611   -2.0688    0.6213 C   0  0  1  0  0  0  0  0  0  0  0  0
   -0.5760   -1.3242    1.6293 O   0  0  0  0  0  0  0  0  0  0  0  0
   -2.5555   -0.8092    0.5400 C   0  0  0  0  0  0  0  0  0  0  0  0
   -3.6994   -1.6714    1.3815 C   0  0  2  0  0  0  0  0  0  0  0  0
   -4.8641   -1.3636    0.2753 C   0  0  0  0  0  0  0  0  0  0  0  0
   -4.9068   -2.3563   -0.5241 O   0  0  0  0  0  0  0  0  0  0  0  0
   -6.1679   -1.2196    0.8741 N   0  0  0  0  0  0  0  0  0  0  0  0
   -7.3468   -1.2007    0.0490 C   0  0  0  0  0  0  0  0  0  0  0  0
   -7.8111    0.1919   -0.2957 C   0  0  0  0  0  0  0  0  0  0  0  0
   -6.8920    0.8624   -1.3086 C   0  0  0  0  0  0  0  0  0  0  0  0
   -7.9384    1.0638    0.9198 C   0  0  0  0  0  0  0  0  0  0  0  0
   -9.1273    0.0492   -0.9951 C   0  0  0  0  0  0  0  0  0  0  0  0
   -9.1825   -0.8822   -2.0823 N   0  0  0  0  0  0  0  0  0  0  0  0
  -10.1419    0.0950   -0.2537 O   0  0  0  0  0  0  0  0  0  0  0  0
   -4.1322   -0.3626    2.3116 C   0  0  0  0  0  0  0  0  0  0  0  0
   -4.6983   -1.1334    3.5041 C   0  0  0  0  0  0  0  0  0  0  0  0
   -2.8822    0.2842    2.7689 C   0  0  0  0  0  0  0  0  0  0  0  0
    1.1421    1.7043    0.0869 C   0  0  0  0  0  0  0  0  0  0  0  0
   -0.1856    2.4620    0.1342 C   0  0  0  0  0  0  0  0  0  0  0  0
    2.0759    2.6560   -0.6577 C   0  0  0  0  0  0  0  0  0  0  0  0
    3.6870    0.0729    1.2179 C   0  0  0  0  0  0  0  0  0  0  0  0
    5.0231   -0.2162    1.4581 C   0  0  0  0  0  0  0  0  0  0  0  0
    5.8376   -0.5835    0.3925 C   0  0  0  0  0  0  0  0  0  0  0  0
    6.8039   -1.5776    0.5046 O   0  0  0  0  0  0  0  0  0  0  0  0
    6.7111   -2.8398   -0.1072 C   0  0  0  0  0  0  0  0  0  0  0  0
  1  2  1  0
  2  3  1  0
  3  4  1  0
  4  5  1  0
  5  6  1  0
  6  7  1  0
  7  8  2  0
  8  9  1  0
  9 10  1  0
 11 10  1  1
 11 12  1  0
 13 12  1  1
 13 14  1  0
 13 15  1  0
 15 16  1  1
 15 17  1  0
 18 17  1  6
 18 19  1  0
 19 20  2  0
 19 21  1  0
 21 22  1  0
 22 23  1  0
 23 24  1  0
 23 25  1  0
 23 26  1  0
 26 27  1  0
 26 28  2  0
 18 29  1  0
 29 30  1  0
 29 31  1  0
 11 32  1  0
 32 33  1  0
 32 34  1  0
  9 35  2  0
 35 36  1  0
 36 37  2  0
 37 38  1  0
 38 39  1  0
 37  7  1  0
M  END
>  <zinc_id>  (616) 
ZINC000004393164

>  <smiles>  (616) 
COCCCOc1cc(C[C@@H](C[C@H](N)[C@@H](O)C[C@H](C(=O)NCC(C)(C)C(N)=O)C(C)C)C(C)C)ccc1OC

$$$$

     RDKit          3D

 27 29  0  0  0  0  0  0  0  0999 V2000
    4.8096    0.7686    2.0632 C   0  0  0  0  0  0  0  0  0  0  0  0
    5.0759    1.0402    0.6006 C   0  0  0  0  0  0  0  0  0  0  0  0
    3.8515    1.4112   -0.1031 N   0  0  0  0  0  0  0  0  0  0  0  0
    4.0460    2.6328   -0.8803 C   0  0  0  0  0  0  0  0  0  0  0  0
    3.1417    3.7476   -0.4222 C   0  0  0  0  0  0  0  0  0  0  0  0
    3.6020    0.3628   -1.0899 C   0  0  0  0  0  0  0  0  0  0  0  0
    2.8377   -0.7908   -0.5101 C   0  0  0  0  0  0  0  0  0  0  0  0
    1.4449   -0.6191   -0.8166 N   0  0  0  0  0  0  0  0  0  0  0  0
    0.5630   -1.3659    0.0285 C   0  0  0  0  0  0  0  0  0  0  0  0
    1.1689   -2.4858    0.5855 C   0  0  0  0  0  0  0  0  0  0  0  0
    0.3321   -3.4233    1.1696 C   0  0  0  0  0  0  0  0  0  0  0  0
   -1.0130   -3.1548    1.3916 C   0  0  0  0  0  0  0  0  0  0  0  0
   -1.9515   -4.1541    2.4660 Cl  0  0  0  0  0  0  0  0  0  0  0  0
   -1.5932   -2.0132    0.8545 C   0  0  0  0  0  0  0  0  0  0  0  0
   -0.8046   -1.1440    0.1301 C   0  0  0  0  0  0  0  0  0  0  0  0
   -1.6668   -0.2238   -0.6108 C   0  0  0  0  0  0  0  0  0  0  0  0
   -2.9209    0.1455    0.0585 C   0  0  0  0  0  0  0  0  0  0  0  0
   -4.0759    0.1827   -0.7125 C   0  0  0  0  0  0  0  0  0  0  0  0
   -5.1171    1.0555   -0.4222 C   0  0  0  0  0  0  0  0  0  0  0  0
   -4.8747    2.1570    0.3883 C   0  0  0  0  0  0  0  0  0  0  0  0
   -3.8515    2.0023    1.3148 C   0  0  0  0  0  0  0  0  0  0  0  0
   -2.9214    0.9825    1.1668 C   0  0  0  0  0  0  0  0  0  0  0  0
   -1.7833    1.0499    1.8992 F   0  0  0  0  0  0  0  0  0  0  0  0
   -1.2122    0.7091   -1.3956 N   0  0  0  0  0  0  0  0  0  0  0  0
   -0.2201    0.6116   -2.4365 C   0  0  0  0  0  0  0  0  0  0  0  0
    1.1148    0.2214   -1.9155 C   0  0  0  0  0  0  0  0  0  0  0  0
    2.0181    0.2943   -2.8020 O   0  0  0  0  0  0  0  0  0  0  0  0
  1  2  1  0
  2  3  1  0
  3  4  1  0
  4  5  1  0
  3  6  1  0
  6  7  1  0
  7  8  1  0
  8  9  1  0
  9 10  2  0
 10 11  1  0
 11 12  2  0
 12 13  1  0
 12 14  1  0
 14 15  2  0
 15 16  1  0
 16 17  1  0
 17 18  2  0
 18 19  1  0
 19 20  2  0
 20 21  1  0
 21 22  2  0
 22 23  1  0
 16 24  2  0
 24 25  1  0
 25 26  1  0
 26 27  2  0
 26  8  1  0
 15  9  1  0
 22 17  1  0
M  END
>  <zinc_id>  (617) 
ZINC000000537752

>  <smiles>  (617) 
CCN(CC)CCN1C(=O)CN=C(c2ccccc2F)c2cc(Cl)ccc21

$$$$

     RDKit          3D

 31 33  0  0  0  0  0  0  0  0999 V2000
    8.7223    3.1866    0.6220 C   0  0  0  0  0  0  0  0  0  0  0  0
    7.7718    2.0574    0.4390 C   0  0  0  0  0  0  0  0  0  0  0  0
    7.8054    1.2367   -0.6761 C   0  0  0  0  0  0  0  0  0  0  0  0
    7.1876    0.0386   -0.5531 N   0  0  0  0  0  0  0  0  0  0  0  0
    6.1300   -0.1175    0.2570 C   0  0  0  0  0  0  0  0  0  0  0  0
    5.3757   -1.3667    0.3630 C   0  0  0  0  0  0  0  0  0  0  0  0
    4.8698   -1.6895    1.4803 O   0  0  0  0  0  0  0  0  0  0  0  0
    4.8464   -2.0462   -0.7729 N   0  0  0  0  0  0  0  0  0  0  0  0
    3.4937   -2.5965   -0.7448 C   0  0  0  0  0  0  0  0  0  0  0  0
    2.5686   -1.4854   -1.1625 C   0  0  0  0  0  0  0  0  0  0  0  0
    1.2457   -1.5475   -0.5122 C   0  0  0  0  0  0  0  0  0  0  0  0
    0.4316   -2.6678   -0.5478 C   0  0  0  0  0  0  0  0  0  0  0  0
   -0.9446   -2.4979   -0.4929 C   0  0  0  0  0  0  0  0  0  0  0  0
   -1.5222   -1.2473   -0.3793 C   0  0  0  0  0  0  0  0  0  0  0  0
   -3.2572   -1.1688   -0.4768 S   0  0  0  0  0  0  0  0  0  0  0  0
   -3.8871   -1.8853    0.6913 O   0  0  0  0  0  0  0  0  0  0  0  0
   -3.6888   -1.8242   -1.7699 O   0  0  0  0  0  0  0  0  0  0  0  0
   -3.8322    0.4618   -0.5513 N   0  0  0  0  0  0  0  0  0  0  0  0
   -3.9003    1.2383    0.4629 C   0  0  0  0  0  0  0  0  0  0  0  0
   -3.2520    0.8004    1.6220 O   0  0  0  0  0  0  0  0  0  0  0  0
   -4.9154    2.2237    0.4742 N   0  0  0  0  0  0  0  0  0  0  0  0
   -6.1013    2.1872   -0.3485 C   0  0  0  0  0  0  0  0  0  0  0  0
   -7.2945    2.7567    0.3809 C   0  0  0  0  0  0  0  0  0  0  0  0
   -7.7537    1.8751    1.5085 C   0  0  0  0  0  0  0  0  0  0  0  0
   -8.2392    0.5232    1.0005 C   0  0  0  0  0  0  0  0  0  0  0  0
   -7.8897    0.4256   -0.4779 C   0  0  0  0  0  0  0  0  0  0  0  0
   -6.4476    0.7628   -0.7302 C   0  0  0  0  0  0  0  0  0  0  0  0
   -0.7126   -0.1773   -0.0991 C   0  0  0  0  0  0  0  0  0  0  0  0
    0.6615   -0.3786   -0.0403 C   0  0  0  0  0  0  0  0  0  0  0  0
    5.8995    0.8904    1.1840 C   0  0  0  0  0  0  0  0  0  0  0  0
    6.6289    2.0319    1.1606 N   0  0  0  0  0  0  0  0  0  0  0  0
  1  2  1  0
  2  3  2  0
  3  4  1  0
  4  5  2  0
  5  6  1  0
  6  7  2  0
  6  8  1  0
  8  9  1  0
  9 10  1  0
 10 11  1  0
 11 12  2  0
 12 13  1  0
 13 14  2  0
 14 15  1  0
 15 16  2  0
 15 17  2  0
 15 18  1  0
 18 19  2  0
 19 20  1  0
 19 21  1  0
 21 22  1  0
 22 23  1  0
 23 24  1  0
 24 25  1  0
 25 26  1  0
 26 27  1  0
 14 28  1  0
 28 29  2  0
  5 30  1  0
 30 31  2  0
 31  2  1  0
 29 11  1  0
 27 22  1  0
M  END
>  <zinc_id>  (618) 
ZINC000000537795

>  <smiles>  (618) 
Cc1cnc(C(=O)NCCc2ccc(S(=O)(=O)/N=C(\O)NC3CCCCC3)cc2)cn1

$$$$

     RDKit          3D

 34 37  0  0  0  0  0  0  0  0999 V2000
   -1.4306    3.2074   -1.9451 C   0  0  0  0  0  0  0  0  0  0  0  0
   -1.6371    1.7680   -1.8225 N   0  0  0  0  0  0  0  0  0  0  0  0
   -1.8875    0.9846   -3.0246 C   0  0  0  0  0  0  0  0  0  0  0  0
   -1.2306    1.0395   -0.6583 C   0  0  0  0  0  0  0  0  0  0  0  0
   -0.3567    1.6164    0.0585 O   0  0  0  0  0  0  0  0  0  0  0  0
   -2.1842    0.1712    0.1019 C   0  0  0  0  0  0  0  0  0  0  0  0
   -1.3715   -0.7889    0.9242 C   0  0  0  0  0  0  0  0  0  0  0  0
   -0.6158   -1.7927    0.1040 C   0  0  0  0  0  0  0  0  0  0  0  0
    0.7970   -1.5229    0.0192 N   0  0  0  0  0  0  0  0  0  0  0  0
    1.2288   -1.3230   -1.3639 C   0  0  0  0  0  0  0  0  0  0  0  0
    2.5525   -0.5755   -1.2580 C   0  0  0  0  0  0  0  0  0  0  0  0
    3.5307   -1.5101   -0.6054 C   0  0  0  0  0  0  0  0  0  0  0  0
    3.9012   -2.4534   -1.5765 O   0  0  0  0  0  0  0  0  0  0  0  0
    4.7348   -0.7213   -0.2024 C   0  0  0  0  0  0  0  0  0  0  0  0
    4.8179   -0.1083    1.0327 C   0  0  0  0  0  0  0  0  0  0  0  0
    5.8212    0.8247    1.2582 C   0  0  0  0  0  0  0  0  0  0  0  0
    6.7566    1.1208    0.2795 C   0  0  0  0  0  0  0  0  0  0  0  0
    7.5710    2.6738    0.2968 Cl  0  0  0  0  0  0  0  0  0  0  0  0
    6.7353    0.3201   -0.8497 C   0  0  0  0  0  0  0  0  0  0  0  0
    5.8379   -0.7045   -1.0102 C   0  0  0  0  0  0  0  0  0  0  0  0
    3.0059   -2.1629    0.6421 C   0  0  0  0  0  0  0  0  0  0  0  0
    1.5846   -2.6282    0.5287 C   0  0  0  0  0  0  0  0  0  0  0  0
   -2.8672    1.0787    1.0771 C   0  0  0  0  0  0  0  0  0  0  0  0
   -3.4464    0.4790    2.1811 C   0  0  0  0  0  0  0  0  0  0  0  0
   -4.0839    1.2992    3.1041 C   0  0  0  0  0  0  0  0  0  0  0  0
   -4.5355    2.5543    2.7180 C   0  0  0  0  0  0  0  0  0  0  0  0
   -4.3671    2.8973    1.3841 C   0  0  0  0  0  0  0  0  0  0  0  0
   -3.3571    2.2883    0.6656 C   0  0  0  0  0  0  0  0  0  0  0  0
   -3.1594   -0.4963   -0.7851 C   0  0  0  0  0  0  0  0  0  0  0  0
   -4.4403    0.0139   -0.9614 C   0  0  0  0  0  0  0  0  0  0  0  0
   -5.5160   -0.8468   -1.1454 C   0  0  0  0  0  0  0  0  0  0  0  0
   -5.3496   -2.2256   -1.1389 C   0  0  0  0  0  0  0  0  0  0  0  0
   -4.0546   -2.6774   -1.3565 C   0  0  0  0  0  0  0  0  0  0  0  0
   -2.9843   -1.7993   -1.2349 C   0  0  0  0  0  0  0  0  0  0  0  0
  1  2  1  0
  2  3  1  0
  2  4  1  0
  4  5  2  0
  4  6  1  0
  6  7  1  0
  7  8  1  0
  8  9  1  0
  9 10  1  0
 10 11  1  0
 11 12  1  0
 12 13  1  0
 12 14  1  0
 14 15  2  0
 15 16  1  0
 16 17  2  0
 17 18  1  0
 17 19  1  0
 19 20  2  0
 12 21  1  0
 21 22  1  0
  6 23  1  0
 23 24  2  0
 24 25  1  0
 25 26  2  0
 26 27  1  0
 27 28  2  0
  6 29  1  0
 29 30  2  0
 30 31  1  0
 31 32  2  0
 32 33  1  0
 33 34  2  0
 22  9  1  0
 28 23  1  0
 34 29  1  0
 20 14  1  0
M  END
>  <zinc_id>  (619) 
ZINC000000537928

>  <smiles>  (619) 
CN(C)C(=O)C(CCN1CCC(O)(c2ccc(Cl)cc2)CC1)(c1ccccc1)c1ccccc1

$$$$

     RDKit          3D

 23 23  0  0  0  0  0  0  0  0999 V2000
   -4.9256    2.6904    0.2062 C   0  0  0  0  0  0  0  0  0  0  0  0
   -4.2087    1.4956   -0.3388 C   0  0  0  0  0  0  0  0  0  0  0  0
   -3.1756    1.6149   -1.2611 C   0  0  0  0  0  0  0  0  0  0  0  0
   -2.0551    0.8068   -1.1402 C   0  0  0  0  0  0  0  0  0  0  0  0
   -0.9449    0.8586   -2.1425 C   0  0  0  0  0  0  0  0  0  0  0  0
   -1.9791   -0.2215   -0.2107 C   0  0  0  0  0  0  0  0  0  0  0  0
   -0.7171   -0.4766    0.4157 N   0  0  0  0  0  0  0  0  0  0  0  0
    0.3530   -1.1347   -0.2484 C   0  0  0  0  0  0  0  0  0  0  0  0
    0.0335   -1.9224   -1.1853 O   0  0  0  0  0  0  0  0  0  0  0  0
    1.4832   -1.5857    0.6218 C   0  0  0  0  0  0  0  0  0  0  0  0
    2.6892   -0.8369    0.3926 N   0  0  0  0  0  0  0  0  0  0  0  0
    3.6111   -1.6858   -0.3588 C   0  0  0  0  0  0  0  0  0  0  0  0
    5.0239   -1.3478   -0.0914 C   0  0  0  0  0  0  0  0  0  0  0  0
    5.9193   -1.4808   -0.9763 O   0  0  0  0  0  0  0  0  0  0  0  0
    5.4809   -0.9077    1.1540 O   0  0  0  0  0  0  0  0  0  0  0  0
    2.4909    0.3611   -0.3789 C   0  0  0  0  0  0  0  0  0  0  0  0
    2.4320    1.5831    0.4484 C   0  0  0  0  0  0  0  0  0  0  0  0
    2.4433    2.6879   -0.1391 O   0  0  0  0  0  0  0  0  0  0  0  0
    2.4996    1.5951    1.8270 O   0  0  0  0  0  0  0  0  0  0  0  0
   -3.1644   -0.5423    0.4399 C   0  0  0  0  0  0  0  0  0  0  0  0
   -3.1524   -1.7274    1.3501 C   0  0  0  0  0  0  0  0  0  0  0  0
   -4.2923    0.2535    0.2801 C   0  0  0  0  0  0  0  0  0  0  0  0
   -5.8447   -0.0775    1.3356 Br  0  0  0  0  0  0  0  0  0  0  0  0
  1  2  1  0
  2  3  2  0
  3  4  1  0
  4  5  1  0
  4  6  2  0
  6  7  1  0
  7  8  1  0
  8  9  2  0
  8 10  1  0
 10 11  1  0
 11 12  1  0
 12 13  1  0
 13 14  2  0
 13 15  1  0
 11 16  1  0
 16 17  1  0
 17 18  2  0
 17 19  1  0
  6 20  1  0
 20 21  1  0
 20 22  2  0
 22 23  1  0
 22  2  1  0
M  END
>  <zinc_id>  (620) 
ZINC000000537957

>  <smiles>  (620) 
Cc1cc(C)c(NC(=O)CN(CC(=O)O)CC(=O)O)c(C)c1Br

$$$$

     RDKit          3D

 33 36  0  0  0  0  0  0  0  0999 V2000
   -2.9977   -3.7898   -0.8414 C   0  0  0  0  0  0  0  0  0  0  0  0
   -1.7172   -3.1253   -0.3784 C   0  0  0  0  0  0  0  0  0  0  0  0
   -1.9030   -2.4310    0.9618 C   0  0  0  0  0  0  0  0  0  0  0  0
   -2.7784   -1.2260    0.8258 C   0  0  0  0  0  0  0  0  0  0  0  0
   -3.6655   -0.7248    1.6934 N   0  0  0  0  0  0  0  0  0  0  0  0
   -4.3372    0.3094    1.1379 C   0  0  0  0  0  0  0  0  0  0  0  0
   -5.2297    1.3034    1.8120 C   0  0  0  0  0  0  0  0  0  0  0  0
   -5.1682    1.1802    3.3138 C   0  0  0  0  0  0  0  0  0  0  0  0
   -4.8709    2.7266    1.3990 C   0  0  0  0  0  0  0  0  0  0  0  0
   -6.5526    1.0958    1.4061 O   0  0  0  0  0  0  0  0  0  0  0  0
   -3.7945    0.4271   -0.1347 C   0  0  0  0  0  0  0  0  0  0  0  0
   -4.4802    1.0658   -1.2624 C   0  0  0  0  0  0  0  0  0  0  0  0
   -3.9269    2.0831   -1.7750 O   0  0  0  0  0  0  0  0  0  0  0  0
   -5.3743    0.3387   -2.0423 O   0  0  0  0  0  0  0  0  0  0  0  0
   -2.6467   -0.2927   -0.1469 N   0  0  0  0  0  0  0  0  0  0  0  0
   -1.6415   -0.1446   -1.1608 C   0  0  0  0  0  0  0  0  0  0  0  0
   -0.3602    0.3857   -0.6564 C   0  0  0  0  0  0  0  0  0  0  0  0
    0.1122    0.1754    0.6269 C   0  0  0  0  0  0  0  0  0  0  0  0
    1.4541   -0.1198    0.8357 C   0  0  0  0  0  0  0  0  0  0  0  0
    2.3965    0.0264   -0.1747 C   0  0  0  0  0  0  0  0  0  0  0  0
    3.5348   -0.8952   -0.2801 C   0  0  0  0  0  0  0  0  0  0  0  0
    3.4100   -2.2414    0.0438 C   0  0  0  0  0  0  0  0  0  0  0  0
    4.4473   -3.1074   -0.2611 C   0  0  0  0  0  0  0  0  0  0  0  0
    5.4164   -2.6296   -1.1335 C   0  0  0  0  0  0  0  0  0  0  0  0
    5.7170   -1.2761   -1.0454 C   0  0  0  0  0  0  0  0  0  0  0  0
    4.7395   -0.3489   -0.7031 C   0  0  0  0  0  0  0  0  0  0  0  0
    5.1256    0.9681   -0.1846 C   0  0  0  0  0  0  0  0  0  0  0  0
    6.1476    1.1491    0.6846 N   0  0  0  0  0  0  0  0  0  0  0  0
    6.4375    2.4453    0.6047 N   0  0  0  0  0  0  0  0  0  0  0  0
    5.2992    3.0521    0.2748 N   0  0  0  0  0  0  0  0  0  0  0  0
    4.6809    2.1818   -0.5223 N   0  0  0  0  0  0  0  0  0  0  0  0
    1.9419    0.6329   -1.3363 C   0  0  0  0  0  0  0  0  0  0  0  0
    0.5842    0.8059   -1.5807 C   0  0  0  0  0  0  0  0  0  0  0  0
  1  2  1  0
  2  3  1  0
  3  4  1  0
  4  5  2  0
  5  6  1  0
  6  7  1  0
  7  8  1  0
  7  9  1  0
  7 10  1  0
  6 11  2  0
 11 12  1  0
 12 13  2  0
 12 14  1  0
 11 15  1  0
 15 16  1  0
 16 17  1  0
 17 18  2  0
 18 19  1  0
 19 20  2  0
 20 21  1  0
 21 22  2  0
 22 23  1  0
 23 24  2  0
 24 25  1  0
 25 26  2  0
 26 27  1  0
 27 28  2  0
 28 29  1  0
 29 30  2  0
 30 31  1  0
 20 32  1  0
 32 33  2  0
 15  4  1  0
 33 17  1  0
 26 21  1  0
 31 27  1  0
M  END
>  <zinc_id>  (621) 
ZINC000000538621

>  <smiles>  (621) 
CCCc1nc(C(C)(C)O)c(C(=O)O)n1Cc1ccc(-c2ccccc2-c2nnn[nH]2)cc1

$$$$

     RDKit          3D

 17 18  0  0  0  0  0  0  0  0999 V2000
    0.2064    3.9643    0.3815 C   0  0  0  0  0  0  0  0  0  0  0  0
    0.5304    2.6346    0.5333 O   0  0  0  0  0  0  0  0  0  0  0  0
    0.0507    1.6782   -0.3735 C   0  0  0  0  0  0  0  0  0  0  0  0
   -0.8653    2.0915   -1.1177 O   0  0  0  0  0  0  0  0  0  0  0  0
   -0.3038    0.3263    0.4500 C   0  0  2  0  0  0  0  0  0  0  0  0
    1.1606   -0.3049    0.1938 C   0  0  0  0  0  0  0  0  0  0  0  0
    1.9183   -0.5292    1.3087 C   0  0  0  0  0  0  0  0  0  0  0  0
    3.1984   -1.0291    1.1112 C   0  0  0  0  0  0  0  0  0  0  0  0
    3.5833   -1.4335   -0.1615 C   0  0  0  0  0  0  0  0  0  0  0  0
    2.8993   -0.8873   -1.2443 C   0  0  0  0  0  0  0  0  0  0  0  0
    1.6515   -0.2947   -1.0687 C   0  0  0  0  0  0  0  0  0  0  0  0
   -0.9831   -0.4758   -0.9419 C   0  0  2  0  0  0  0  0  0  0  0  0
   -2.4730    0.1944   -0.6839 C   0  0  0  0  0  0  0  0  0  0  0  0
   -3.4713   -0.8905   -1.0673 C   0  0  0  0  0  0  0  0  0  0  0  0
   -3.5859   -1.7539    0.1885 C   0  0  0  0  0  0  0  0  0  0  0  0
   -2.2445   -1.5087    0.8834 C   0  0  0  0  0  0  0  0  0  0  0  0
   -1.2718   -1.7817   -0.1015 N   0  0  0  0  0  0  0  0  0  0  0  0
  1  2  1  0
  2  3  1  0
  3  4  2  0
  5  3  1  6
  5  6  1  0
  6  7  2  0
  7  8  1  0
  8  9  2  0
  9 10  1  0
 10 11  2  0
  5 12  1  0
 12 13  1  1
 13 14  1  0
 14 15  1  0
 15 16  1  0
 16 17  1  0
 11  6  1  0
 17 12  1  0
M  END
>  <zinc_id>  (622) 
ZINC000000001267

>  <smiles>  (622) 
COC(=O)[C@H](c1ccccc1)[C@@H]1CCCCN1

$$$$

     RDKit          3D

 21 23  0  0  0  0  0  0  0  0999 V2000
    4.7388   -0.3903   -0.9750 C   0  0  0  0  0  0  0  0  0  0  0  0
    4.3608   -0.9333    0.3256 N   0  0  0  0  0  0  0  0  0  0  0  0
    4.2154   -2.3750    0.2097 C   0  0  0  0  0  0  0  0  0  0  0  0
    3.0970   -0.3855    0.7399 C   0  0  0  0  0  0  0  0  0  0  0  0
    2.2480    0.0810   -0.4338 C   0  0  0  0  0  0  0  0  0  0  0  0
    1.0113   -0.7611   -0.4715 C   0  0  0  0  0  0  0  0  0  0  0  0
   -0.0473   -0.2543    0.1590 C   0  0  0  0  0  0  0  0  0  0  0  0
   -0.0437    1.2148    0.1815 C   0  0  0  0  0  0  0  0  0  0  0  0
    0.9516    1.7547   -0.6246 C   0  0  0  0  0  0  0  0  0  0  0  0
    0.8204    3.0176   -1.1857 C   0  0  0  0  0  0  0  0  0  0  0  0
   -0.3571    3.7325   -1.0172 C   0  0  0  0  0  0  0  0  0  0  0  0
   -1.2929    3.2687   -0.1010 C   0  0  0  0  0  0  0  0  0  0  0  0
   -1.1736    1.9872    0.4240 C   0  0  0  0  0  0  0  0  0  0  0  0
   -2.2176    1.6422    1.4149 C   0  0  0  0  0  0  0  0  0  0  0  0
   -2.8920    0.4466    1.1254 O   0  0  0  0  0  0  0  0  0  0  0  0
   -2.4664   -0.8035    0.6686 C   0  0  0  0  0  0  0  0  0  0  0  0
   -3.5128   -1.6644    0.3644 C   0  0  0  0  0  0  0  0  0  0  0  0
   -3.3107   -2.7255   -0.5035 C   0  0  0  0  0  0  0  0  0  0  0  0
   -2.0198   -3.2332   -0.5551 C   0  0  0  0  0  0  0  0  0  0  0  0
   -0.9550   -2.4337   -0.1600 C   0  0  0  0  0  0  0  0  0  0  0  0
   -1.1542   -1.1856    0.4144 C   0  0  0  0  0  0  0  0  0  0  0  0
  1  2  1  0
  2  3  1  0
  2  4  1  0
  4  5  1  0
  5  6  1  0
  6  7  2  0
  7  8  1  0
  8  9  2  0
  9 10  1  0
 10 11  2  0
 11 12  1  0
 12 13  2  0
 13 14  1  0
 14 15  1  0
 15 16  1  0
 16 17  2  0
 17 18  1  0
 18 19  2  0
 19 20  1  0
 20 21  2  0
 21  7  1  0
 13  8  1  0
 21 16  1  0
M  END
>  <zinc_id>  (623) 
ZINC000000001331

>  <smiles>  (623) 
CN(C)CC/C=C1\c2ccccc2COc2ccccc21

$$$$

     RDKit          3D

 21 24  0  0  0  0  0  0  0  0999 V2000
    0.3590    4.4087    1.0916 Cl  0  0  0  0  0  0  0  0  0  0  0  0
    0.0345    2.9413    0.1733 C   0  0  0  0  0  0  0  0  0  0  0  0
   -1.0159    2.9010   -0.7336 C   0  0  0  0  0  0  0  0  0  0  0  0
   -1.7954    1.7615   -0.8834 C   0  0  0  0  0  0  0  0  0  0  0  0
   -1.3834    0.6016   -0.2454 C   0  0  0  0  0  0  0  0  0  0  0  0
   -0.1773    0.6036    0.4472 C   0  0  0  0  0  0  0  0  0  0  0  0
    0.6378    1.7289    0.4810 C   0  0  0  0  0  0  0  0  0  0  0  0
    0.6153   -0.5460    0.9060 C   0  0  0  0  0  0  0  0  0  0  0  0
    2.0655   -0.5044    0.6694 C   0  0  0  0  0  0  0  0  0  0  0  0
    2.6804    0.5848    0.0973 C   0  0  0  0  0  0  0  0  0  0  0  0
    3.6758    0.4158   -0.8581 C   0  0  0  0  0  0  0  0  0  0  0  0
    4.1479   -0.8409   -1.2026 C   0  0  0  0  0  0  0  0  0  0  0  0
    3.8009   -1.8736   -0.3435 C   0  0  0  0  0  0  0  0  0  0  0  0
    2.7405   -1.7121    0.5403 C   0  0  0  0  0  0  0  0  0  0  0  0
    0.0919   -1.7187    1.0660 N   0  0  0  0  0  0  0  0  0  0  0  0
   -1.2500   -2.2004    1.2096 C   0  0  0  0  0  0  0  0  0  0  0  0
   -2.1562   -1.7323    0.1152 C   0  0  0  0  0  0  0  0  0  0  0  0
   -3.4116   -2.2392    0.0547 N   0  0  0  0  0  0  0  0  0  0  0  0
   -4.0018   -1.6335   -0.9751 N   0  0  0  0  0  0  0  0  0  0  0  0
   -3.3748   -0.4505   -1.1856 C   0  0  0  0  0  0  0  0  0  0  0  0
   -2.2831   -0.4955   -0.4244 N   0  0  0  0  0  0  0  0  0  0  0  0
  1  2  1  0
  2  3  2  0
  3  4  1  0
  4  5  2  0
  5  6  1  0
  6  7  2  0
  6  8  1  0
  8  9  1  0
  9 10  2  0
 10 11  1  0
 11 12  2  0
 12 13  1  0
 13 14  2  0
  8 15  2  0
 15 16  1  0
 16 17  1  0
 17 18  2  0
 18 19  1  0
 19 20  2  0
 20 21  1  0
  7  2  1  0
 14  9  1  0
 21 17  1  0
 21  5  1  0
M  END
>  <zinc_id>  (624) 
ZINC000000001370

>  <smiles>  (624) 
Clc1ccc2c(c1)C(c1ccccc1)=NCc1nncn1-2

$$$$

     RDKit          3D

 52 54  0  0  0  0  0  0  0  0999 V2000
    0.1019    1.6758   -3.4240 C   0  0  0  0  0  0  0  0  0  0  0  0
    0.2537    2.9173   -3.0345 C   0  0  0  0  0  0  0  0  0  0  0  0
   -0.4150    3.1236   -1.5380 C   0  0  1  0  0  0  0  0  0  0  0  0
    0.9903    3.3510   -0.9464 O   0  0  0  0  0  0  0  0  0  0  0  0
    1.7105    2.1752   -0.6588 C   0  0  0  0  0  0  0  0  0  0  0  0
    2.8514    2.4597   -0.2515 O   0  0  0  0  0  0  0  0  0  0  0  0
    0.7177    1.3531    0.2792 C   0  0  2  0  0  0  0  0  0  0  0  0
    1.6370    1.3942    1.6306 C   0  0  0  0  0  0  0  0  0  0  0  0
    1.1326   -0.2154   -0.2507 C   0  0  1  0  0  0  0  0  0  0  0  0
    2.5438    0.0609    0.1091 O   0  0  0  0  0  0  0  0  0  0  0  0
    3.2682   -1.2531   -0.0154 C   0  0  1  0  0  0  0  0  0  0  0  0
    4.6881   -0.4630   -0.4269 C   0  0  0  0  0  0  0  0  0  0  0  0
    5.5245   -1.6359   -0.6007 C   0  0  1  0  0  0  0  0  0  0  0  0
    4.7571   -2.4730   -1.6277 C   0  0  0  0  0  0  0  0  0  0  0  0
    6.8085   -1.6034   -1.0162 O   0  0  0  0  0  0  0  0  0  0  0  0
    7.0833   -2.9675   -1.2842 C   0  0  0  0  0  0  0  0  0  0  0  0
    5.3642   -2.3896    0.8327 C   0  0  1  0  0  0  0  0  0  0  0  0
    6.7930   -2.1880    1.2575 O   0  0  0  0  0  0  0  0  0  0  0  0
    4.9506   -0.9260    1.6402 C   0  0  2  0  0  0  0  0  0  0  0  0
    5.0323   -1.6360    3.1106 C   0  0  0  0  0  0  0  0  0  0  0  0
    3.5026   -1.2318    1.4925 O   0  0  0  0  0  0  0  0  0  0  0  0
    0.5800   -0.8447    1.2284 C   0  0  2  0  0  0  0  0  0  0  0  0
    0.8820   -2.3241    0.6878 C   0  0  0  0  0  0  0  0  0  0  0  0
   -1.0410   -0.9355    0.7400 C   0  0  1  0  0  0  0  0  0  0  0  0
   -1.3943   -2.1909    1.5411 O   0  0  0  0  0  0  0  0  0  0  0  0
   -1.5908   -3.2027    0.4114 C   0  0  2  0  0  0  0  0  0  0  0  0
   -2.0746   -2.1176   -0.5038 O   0  0  0  0  0  0  0  0  0  0  0  0
   -2.8226   -2.7257   -1.6492 C   0  0  2  0  0  0  0  0  0  0  0  0
   -4.2149   -2.5104   -0.7798 C   0  0  0  0  0  0  0  0  0  0  0  0
   -2.3409   -4.2314   -1.3263 C   0  0  0  0  0  0  0  0  0  0  0  0
   -3.1524   -5.0129   -0.2158 C   0  0  2  0  0  0  0  0  0  0  0  0
   -4.5060   -4.9129   -0.9913 N   0  0  0  0  0  0  0  0  0  0  0  0
   -4.2854   -4.9738   -2.4362 C   0  0  0  0  0  0  0  0  0  0  0  0
   -4.9849   -6.3596   -0.8463 C   0  0  0  0  0  0  0  0  0  0  0  0
   -3.1759   -3.7083    0.8833 C   0  0  1  0  0  0  0  0  0  0  0  0
   -2.5913   -4.4933    2.0100 O   0  0  0  0  0  0  0  0  0  0  0  0
   -1.7557    0.0279    1.8453 C   0  0  2  0  0  0  0  0  0  0  0  0
   -1.2513   -0.3050    3.1851 C   0  0  0  0  0  0  0  0  0  0  0  0
   -3.0547   -0.5414    1.8813 O   0  0  0  0  0  0  0  0  0  0  0  0
   -2.0129    1.3667    1.3900 C   0  0  0  0  0  0  0  0  0  0  0  0
   -3.5743    1.6802    1.0703 C   0  0  1  0  0  0  0  0  0  0  0  0
   -3.8051    2.4010    2.5190 C   0  0  0  0  0  0  0  0  0  0  0  0
   -3.3380    3.0294    0.2274 C   0  0  0  0  0  0  0  0  0  0  0  0
   -2.4369    3.9267    0.6916 N   0  0  0  0  0  0  0  0  0  0  0  0
   -2.8204    4.6815    1.9100 C   0  0  0  0  0  0  0  0  0  0  0  0
   -2.6155    5.2404   -0.1407 C   0  0  2  0  0  0  0  0  0  0  0  0
   -3.1199    4.5242   -1.4948 C   0  0  0  0  0  0  0  0  0  0  0  0
   -0.9663    5.5479   -0.5445 C   0  0  1  0  0  0  0  0  0  0  0  0
   -0.3474    4.5695    0.4344 O   0  0  0  0  0  0  0  0  0  0  0  0
   -0.7151    4.6663   -1.8479 C   0  0  1  0  0  0  0  0  0  0  0  0
    0.6407    5.3042   -2.2188 C   0  0  0  0  0  0  0  0  0  0  0  0
   -1.4107    4.8964   -2.9382 O   0  0  0  0  0  0  0  0  0  0  0  0
  1  2  1  0
  3  2  1  6
  3  4  1  0
  4  5  1  0
  5  6  2  0
  5  7  1  0
  7  8  1  1
  7  9  1  0
  9 10  1  1
 11 10  1  1
 11 12  1  0
 12 13  1  0
 13 14  1  6
 13 15  1  0
 15 16  1  0
 13 17  1  0
 17 18  1  1
 17 19  1  0
 19 20  1  1
 19 21  1  0
  9 22  1  0
 22 23  1  6
 22 24  1  0
 24 25  1  1
 26 25  1  1
 26 27  1  0
 27 28  1  0
 28 29  1  1
 28 30  1  0
 30 31  1  0
 31 32  1  6
 32 33  1  0
 32 34  1  0
 31 35  1  0
 35 36  1  1
 24 37  1  0
 37 38  1  1
 37 39  1  0
 37 40  1  0
 40 41  1  0
 41 42  1  1
 41 43  1  0
 43 44  1  0
 44 45  1  0
 44 46  1  0
 46 47  1  6
 46 48  1  0
 48 49  1  1
 48 50  1  0
 50 51  1  6
 50 52  1  0
 50  3  1  0
 21 11  1  0
 35 26  1  0
M  END
>  <zinc_id>  (625) 
ZINC000085537026

>  <smiles>  (625) 
CC[C@H]1OC(=O)[C@H](C)[C@@H](O[C@H]2C[C@@](C)(OC)[C@@H](O)[C@H](C)O2)[C@H](C)[C@@H](O[C@@H]2O[C@H](C)C[C@H](N(C)C)[C@H]2O)[C@](C)(O)C[C@@H](C)CN(C)[C@H](C)[C@@H](O)[C@]1(C)O

$$$$

     RDKit          3D

 22 22  0  0  0  0  0  0  0  0999 V2000
    5.3062   -3.5507   -0.7406 C   0  0  0  0  0  0  0  0  0  0  0  0
    5.1822   -2.9925    0.5408 O   0  0  0  0  0  0  0  0  0  0  0  0
    4.0730   -2.1355    0.4767 C   0  0  0  0  0  0  0  0  0  0  0  0
    4.3322   -1.1845   -0.6839 C   0  0  0  0  0  0  0  0  0  0  0  0
    3.4188    0.0246   -0.5252 C   0  0  0  0  0  0  0  0  0  0  0  0
    2.0330   -0.4858   -0.2404 C   0  0  0  0  0  0  0  0  0  0  0  0
    1.0366    0.5997   -0.1613 C   0  0  0  0  0  0  0  0  0  0  0  0
    1.3501    1.8304    0.1081 N   0  0  0  0  0  0  0  0  0  0  0  0
    0.5210    2.8095   -0.4103 O   0  0  0  0  0  0  0  0  0  0  0  0
    0.8546    4.1863   -0.3345 C   0  0  0  0  0  0  0  0  0  0  0  0
    0.1554    4.7224    0.9089 C   0  0  0  0  0  0  0  0  0  0  0  0
   -1.1659    5.1708    0.4829 N   0  0  0  0  0  0  0  0  0  0  0  0
   -0.3775    0.2872   -0.3577 C   0  0  0  0  0  0  0  0  0  0  0  0
   -1.3198    0.7418    0.5495 C   0  0  0  0  0  0  0  0  0  0  0  0
   -2.5068    0.0300    0.6141 C   0  0  0  0  0  0  0  0  0  0  0  0
   -2.9034   -0.7958   -0.4292 C   0  0  0  0  0  0  0  0  0  0  0  0
   -4.0348   -1.7540   -0.2369 C   0  0  0  0  0  0  0  0  0  0  0  0
   -5.1264   -1.4094   -1.0289 F   0  0  0  0  0  0  0  0  0  0  0  0
   -3.5511   -3.0038   -0.5956 F   0  0  0  0  0  0  0  0  0  0  0  0
   -4.4381   -1.7808    1.0898 F   0  0  0  0  0  0  0  0  0  0  0  0
   -2.0530   -0.9325   -1.5113 C   0  0  0  0  0  0  0  0  0  0  0  0
   -0.7862   -0.3774   -1.5001 C   0  0  0  0  0  0  0  0  0  0  0  0
  1  2  1  0
  2  3  1  0
  3  4  1  0
  4  5  1  0
  5  6  1  0
  6  7  1  0
  7  8  2  0
  8  9  1  0
  9 10  1  0
 10 11  1  0
 11 12  1  0
  7 13  1  0
 13 14  2  0
 14 15  1  0
 15 16  2  0
 16 17  1  0
 17 18  1  0
 17 19  1  0
 17 20  1  0
 16 21  1  0
 21 22  2  0
 22 13  1  0
M  END
>  <zinc_id>  (626) 
ZINC000012466082

>  <smiles>  (626) 
COCCCC/C(=N/OCCN)c1ccc(C(F)(F)F)cc1

$$$$

     RDKit          3D

 17 18  0  0  0  0  0  0  0  0999 V2000
    4.7333    0.4742   -0.4482 N   0  0  0  0  0  0  0  0  0  0  0  0
    3.6325    0.5893    0.4613 C   0  0  0  0  0  0  0  0  0  0  0  0
    3.8965    1.0195    1.6157 O   0  0  0  0  0  0  0  0  0  0  0  0
    2.4738   -0.2897    0.2595 C   0  0  0  0  0  0  0  0  0  0  0  0
    1.1286    0.0562    0.2309 C   0  0  0  0  0  0  0  0  0  0  0  0
    0.4723   -0.8593   -0.5235 N   0  0  0  0  0  0  0  0  0  0  0  0
   -0.6556   -0.5919   -1.4124 C   0  0  0  0  0  0  0  0  0  0  0  0
   -1.7963    0.0065   -0.6585 C   0  0  0  0  0  0  0  0  0  0  0  0
   -2.5117   -0.8471    0.1547 C   0  0  0  0  0  0  0  0  0  0  0  0
   -2.7783   -2.1245   -0.2498 F   0  0  0  0  0  0  0  0  0  0  0  0
   -3.1539   -0.3173    1.2675 C   0  0  0  0  0  0  0  0  0  0  0  0
   -3.0692    1.0427    1.5412 C   0  0  0  0  0  0  0  0  0  0  0  0
   -2.5934    1.8829    0.5485 C   0  0  0  0  0  0  0  0  0  0  0  0
   -1.8542    1.3743   -0.5088 C   0  0  0  0  0  0  0  0  0  0  0  0
   -1.6143    2.1025   -1.6391 F   0  0  0  0  0  0  0  0  0  0  0  0
    1.2197   -1.9529   -0.4395 N   0  0  0  0  0  0  0  0  0  0  0  0
    2.4703   -1.5656   -0.1996 N   0  0  0  0  0  0  0  0  0  0  0  0
  1  2  1  0
  2  3  2  0
  2  4  1  0
  4  5  2  0
  5  6  1  0
  6  7  1  0
  7  8  1  0
  8  9  2  0
  9 10  1  0
  9 11  1  0
 11 12  2  0
 12 13  1  0
 13 14  2  0
 14 15  1  0
  6 16  1  0
 16 17  2  0
 17  4  1  0
 14  8  1  0
M  END
>  <zinc_id>  (627) 
ZINC000000007782

>  <smiles>  (627) 
NC(=O)c1cn(Cc2c(F)cccc2F)nn1

$$$$

     RDKit          3D

 16 17  0  0  0  0  0  0  0  0999 V2000
    4.2835   -0.6910    1.4155 N   0  0  0  0  0  0  0  0  0  0  0  0
    3.1182   -0.5525    0.6242 C   0  0  0  0  0  0  0  0  0  0  0  0
    2.0335   -1.2430    1.0521 N   0  0  0  0  0  0  0  0  0  0  0  0
    0.9759   -1.2565    0.2397 N   0  0  0  0  0  0  0  0  0  0  0  0
    0.6557   -0.1871   -0.5306 C   0  0  0  0  0  0  0  0  0  0  0  0
   -0.7201    0.3317   -0.5657 C   0  0  0  0  0  0  0  0  0  0  0  0
   -0.9639    1.6854   -0.4194 C   0  0  0  0  0  0  0  0  0  0  0  0
   -2.1537    2.0951    0.1595 C   0  0  0  0  0  0  0  0  0  0  0  0
   -3.0230    1.1731    0.7267 C   0  0  0  0  0  0  0  0  0  0  0  0
   -2.9571   -0.1353    0.2655 C   0  0  0  0  0  0  0  0  0  0  0  0
   -4.0014   -1.2943    1.0830 Cl  0  0  0  0  0  0  0  0  0  0  0  0
   -1.7381   -0.5409   -0.2563 C   0  0  0  0  0  0  0  0  0  0  0  0
   -1.6504   -2.1623   -0.8941 Cl  0  0  0  0  0  0  0  0  0  0  0  0
    1.7253    0.6343   -0.8646 C   0  0  0  0  0  0  0  0  0  0  0  0
    1.4894    1.7251   -1.7537 N   0  0  0  0  0  0  0  0  0  0  0  0
    2.9264    0.4183   -0.2815 N   0  0  0  0  0  0  0  0  0  0  0  0
  1  2  1  0
  2  3  2  0
  3  4  1  0
  4  5  2  0
  5  6  1  0
  6  7  2  0
  7  8  1  0
  8  9  2  0
  9 10  1  0
 10 11  1  0
 10 12  2  0
 12 13  1  0
  5 14  1  0
 14 15  1  0
 14 16  2  0
 16  2  1  0
 12  6  1  0
M  END
>  <zinc_id>  (628) 
ZINC000000013156

>  <smiles>  (628) 
Nc1nnc(-c2cccc(Cl)c2Cl)c(N)n1

$$$$

     RDKit          3D

 28 30  0  0  0  0  0  0  0  0999 V2000
   -2.4173   -1.8451   -1.9627 C   0  0  0  0  0  0  0  0  0  0  0  0
   -1.8083   -0.9827   -1.7744 O   0  0  0  0  0  0  0  0  0  0  0  0
   -1.3985   -0.4610   -0.5723 C   0  0  0  0  0  0  0  0  0  0  0  0
   -1.3899    0.9839   -0.5461 C   0  0  0  0  0  0  0  0  0  0  0  0
   -2.3565    1.5611   -1.3713 C   0  0  0  0  0  0  0  0  0  0  0  0
   -2.7514    2.8583   -1.2626 C   0  0  0  0  0  0  0  0  0  0  0  0
   -2.1786    3.6376   -0.2769 C   0  0  0  0  0  0  0  0  0  0  0  0
   -1.3195    3.0352    0.6311 C   0  0  0  0  0  0  0  0  0  0  0  0
   -1.3308    1.6468    0.6797 C   0  0  0  0  0  0  0  0  0  0  0  0
   -2.1317   -1.0452    0.5860 C   0  0  0  0  0  0  0  0  0  0  0  0
   -3.3299   -1.7154    0.4713 C   0  0  0  0  0  0  0  0  0  0  0  0
   -3.8311   -2.4147    1.5421 C   0  0  0  0  0  0  0  0  0  0  0  0
   -3.3291   -2.1672    2.7982 C   0  0  0  0  0  0  0  0  0  0  0  0
   -2.2254   -1.3666    2.9672 C   0  0  0  0  0  0  0  0  0  0  0  0
   -1.6218   -0.7946    1.8541 C   0  0  0  0  0  0  0  0  0  0  0  0
    0.1586   -1.0317   -0.3759 C   0  0  2  0  0  0  0  0  0  0  0  0
    0.7439    0.3041    0.1986 O   0  0  0  0  0  0  0  0  0  0  0  0
    2.1026    0.1686    0.3920 C   0  0  0  0  0  0  0  0  0  0  0  0
    2.8608   -0.7856   -0.1820 N   0  0  0  0  0  0  0  0  0  0  0  0
    4.1599   -0.6225   -0.4560 C   0  0  0  0  0  0  0  0  0  0  0  0
    4.8545   -1.6054   -1.3433 C   0  0  0  0  0  0  0  0  0  0  0  0
    4.8717    0.1997    0.3885 C   0  0  0  0  0  0  0  0  0  0  0  0
    4.1178    1.0745    1.1618 C   0  0  0  0  0  0  0  0  0  0  0  0
    4.8046    1.9601    2.1528 C   0  0  0  0  0  0  0  0  0  0  0  0
    2.7629    1.0870    1.1044 N   0  0  0  0  0  0  0  0  0  0  0  0
    0.5976   -0.6513   -1.9108 C   0  0  0  0  0  0  0  0  0  0  0  0
    0.9966   -1.6355   -2.5654 O   0  0  0  0  0  0  0  0  0  0  0  0
    0.3882    0.6075   -2.3281 O   0  0  0  0  0  0  0  0  0  0  0  0
  1  2  1  0
  2  3  1  0
  3  4  1  0
  4  5  2  0
  5  6  1  0
  6  7  2  0
  7  8  1  0
  8  9  2  0
  3 10  1  0
 10 11  2  0
 11 12  1  0
 12 13  2  0
 13 14  1  0
 14 15  2  0
 16  3  1  6
 16 17  1  0
 17 18  1  0
 18 19  2  0
 19 20  1  0
 20 21  1  0
 20 22  2  0
 22 23  1  0
 23 24  1  0
 23 25  2  0
 16 26  1  0
 26 27  2  0
 26 28  1  0
  9  4  1  0
 15 10  1  0
 25 18  1  0
M  END
>  <zinc_id>  (629) 
ZINC000000538627

>  <smiles>  (629) 
COC(c1ccccc1)(c1ccccc1)[C@H](Oc1nc(C)cc(C)n1)C(=O)O

$$$$

     RDKit          3D

 32 35  0  0  0  0  0  0  0  0999 V2000
    6.8634    0.8076    2.0853 C   0  0  0  0  0  0  0  0  0  0  0  0
    6.7949    0.3240    0.9356 C   0  0  0  0  0  0  0  0  0  0  0  0
    7.8800   -0.3966    0.4540 C   0  0  0  0  0  0  0  0  0  0  0  0
    7.8133   -1.1645   -0.6987 C   0  0  0  0  0  0  0  0  0  0  0  0
    6.7425   -1.0328   -1.5388 C   0  0  0  0  0  0  0  0  0  0  0  0
    5.7196   -0.2134   -1.1367 C   0  0  0  0  0  0  0  0  0  0  0  0
    5.7084    0.4537    0.0785 C   0  0  0  0  0  0  0  0  0  0  0  0
    4.4877    0.9951    0.6707 C   0  0  0  0  0  0  0  0  0  0  0  0
    4.3099    1.0724    1.9157 O   0  0  0  0  0  0  0  0  0  0  0  0
    3.3487    1.3830   -0.1063 N   0  0  0  0  0  0  0  0  0  0  0  0
    2.0177    0.9859    0.2551 C   0  0  0  0  0  0  0  0  0  0  0  0
    1.6112   -0.2069   -0.3334 C   0  0  0  0  0  0  0  0  0  0  0  0
    0.3009   -0.6228   -0.2029 C   0  0  0  0  0  0  0  0  0  0  0  0
   -0.7012    0.2122    0.2762 C   0  0  0  0  0  0  0  0  0  0  0  0
   -1.8014   -0.3724    1.0554 C   0  0  0  0  0  0  0  0  0  0  0  0
   -1.4542   -0.8099    2.1959 O   0  0  0  0  0  0  0  0  0  0  0  0
   -3.1745   -0.0687    0.7771 N   0  0  0  0  0  0  0  0  0  0  0  0
   -3.9699    0.0424    1.9729 C   0  0  0  0  0  0  0  0  0  0  0  0
   -5.3262    0.6187    1.7898 C   0  0  0  0  0  0  0  0  0  0  0  0
   -6.0923    0.0109    0.7143 C   0  0  0  0  0  0  0  0  0  0  0  0
   -5.8724    0.9110   -0.6939 C   0  0  1  0  0  0  0  0  0  0  0  0
   -4.8701    1.9183   -0.0609 O   0  0  0  0  0  0  0  0  0  0  0  0
   -4.6621   -0.0773   -1.2186 C   0  0  0  0  0  0  0  0  0  0  0  0
   -5.2648   -0.9280   -2.1371 C   0  0  0  0  0  0  0  0  0  0  0  0
   -4.6287   -2.1308   -2.4260 C   0  0  0  0  0  0  0  0  0  0  0  0
   -5.5498   -3.5805   -2.8248 Cl  0  0  0  0  0  0  0  0  0  0  0  0
   -3.2620   -2.1855   -2.1726 C   0  0  0  0  0  0  0  0  0  0  0  0
   -2.7701   -1.3915   -1.1393 C   0  0  0  0  0  0  0  0  0  0  0  0
   -3.5926   -0.4620   -0.5067 C   0  0  0  0  0  0  0  0  0  0  0  0
   -0.3201    1.5316    0.4856 C   0  0  0  0  0  0  0  0  0  0  0  0
   -1.2965    2.4515    1.1128 C   0  0  0  0  0  0  0  0  0  0  0  0
    1.0104    1.9254    0.4215 C   0  0  0  0  0  0  0  0  0  0  0  0
  1  2  1  0
  2  3  2  0
  3  4  1  0
  4  5  2  0
  5  6  1  0
  6  7  2  0
  7  8  1  0
  8  9  2  0
  8 10  1  0
 10 11  1  0
 11 12  2  0
 12 13  1  0
 13 14  2  0
 14 15  1  0
 15 16  2  0
 15 17  1  0
 17 18  1  0
 18 19  1  0
 19 20  1  0
 20 21  1  0
 21 22  1  1
 21 23  1  0
 23 24  2  0
 24 25  1  0
 25 26  1  0
 25 27  2  0
 27 28  1  0
 28 29  2  0
 14 30  1  0
 30 31  1  0
 30 32  2  0
  7  2  1  0
 32 11  1  0
 29 17  1  0
 29 23  1  0
M  END
>  <zinc_id>  (630) 
ZINC000000538658

>  <smiles>  (630) 
Cc1ccccc1C(=O)Nc1ccc(C(=O)N2CCC[C@@H](O)c3cc(Cl)ccc32)c(C)c1

$$$$

     RDKit          3D

 22 24  0  0  0  0  0  0  0  0999 V2000
    5.2306    1.9303   -0.0438 C   0  0  0  0  0  0  0  0  0  0  0  0
    5.2616    0.5950    0.6821 C   0  0  0  0  0  0  0  0  0  0  0  0
    3.9028    0.1742    0.7770 O   0  0  0  0  0  0  0  0  0  0  0  0
    3.3096   -0.6831   -0.1277 C   0  0  0  0  0  0  0  0  0  0  0  0
    4.0648   -1.5095   -0.7033 O   0  0  0  0  0  0  0  0  0  0  0  0
    2.0196   -0.4054   -0.7710 C   0  0  0  0  0  0  0  0  0  0  0  0
    1.8095    0.3761   -1.8581 N   0  0  0  0  0  0  0  0  0  0  0  0
    0.6449    1.0466   -1.6807 C   0  0  0  0  0  0  0  0  0  0  0  0
   -0.0344    0.4189   -0.6900 N   0  0  0  0  0  0  0  0  0  0  0  0
    0.7523   -0.5846   -0.2313 C   0  0  0  0  0  0  0  0  0  0  0  0
    0.4823   -1.7041    0.7068 C   0  0  0  0  0  0  0  0  0  0  0  0
   -0.8675   -2.2033    0.5241 N   0  0  0  0  0  0  0  0  0  0  0  0
   -1.0484   -3.6253    0.2486 C   0  0  0  0  0  0  0  0  0  0  0  0
   -2.0598   -1.4450    0.7589 C   0  0  0  0  0  0  0  0  0  0  0  0
   -3.0834   -2.1001    1.0391 O   0  0  0  0  0  0  0  0  0  0  0  0
   -2.1865   -0.0118    0.4679 C   0  0  0  0  0  0  0  0  0  0  0  0
   -3.4747    0.4155    0.6909 C   0  0  0  0  0  0  0  0  0  0  0  0
   -3.8300    1.7297    0.4154 C   0  0  0  0  0  0  0  0  0  0  0  0
   -4.8396    2.2759    1.1375 F   0  0  0  0  0  0  0  0  0  0  0  0
   -3.0118    2.4635   -0.4202 C   0  0  0  0  0  0  0  0  0  0  0  0
   -1.7568    1.9932   -0.7809 C   0  0  0  0  0  0  0  0  0  0  0  0
   -1.2852    0.8535   -0.1412 C   0  0  0  0  0  0  0  0  0  0  0  0
  1  2  1  0
  2  3  1  0
  3  4  1  0
  4  5  2  0
  4  6  1  0
  6  7  1  0
  7  8  2  0
  8  9  1  0
  9 10  1  0
 10 11  1  0
 11 12  1  0
 12 13  1  0
 12 14  1  0
 14 15  2  0
 14 16  1  0
 16 17  2  0
 17 18  1  0
 18 19  1  0
 18 20  2  0
 20 21  1  0
 21 22  2  0
 10  6  2  0
 22 16  1  0
 22  9  1  0
M  END
>  <zinc_id>  (631) 
ZINC000000001464

>  <smiles>  (631) 
CCOC(=O)c1ncn2c1CN(C)C(=O)c1cc(F)ccc1-2

$$$$

     RDKit          3D

 42 45  0  0  0  0  0  0  0  0999 V2000
   -4.1467    2.7218    2.5295 N   0  0  0  0  0  0  0  0  0  0  0  0
   -4.5256    2.8467    1.3168 C   0  0  0  0  0  0  0  0  0  0  0  0
   -5.9383    1.9418    1.0743 C   0  0  2  0  0  0  0  0  0  0  0  0
   -5.3081    0.6960    1.2635 O   0  0  0  0  0  0  0  0  0  0  0  0
   -5.1173   -0.5795    0.6582 C   0  0  2  0  0  0  0  0  0  0  0  0
   -3.6829   -0.6256    1.2532 O   0  0  0  0  0  0  0  0  0  0  0  0
   -3.0663   -1.3721    0.1056 C   0  0  2  0  0  0  0  0  0  0  0  0
   -2.0420   -2.3882    1.0233 C   0  0  1  0  0  0  0  0  0  0  0  0
   -3.0390   -3.6817    0.9579 C   0  0  0  0  0  0  0  0  0  0  0  0
   -3.4208   -3.9069   -0.3040 O   0  0  0  0  0  0  0  0  0  0  0  0
   -1.4052   -2.6420   -0.3298 O   0  0  0  0  0  0  0  0  0  0  0  0
   -0.5515   -1.4666    0.1379 C   0  0  1  0  0  0  0  0  0  0  0  0
    0.0051   -1.2390   -1.2682 O   0  0  0  0  0  0  0  0  0  0  0  0
    0.8736   -0.1458   -0.6776 C   0  0  1  0  0  0  0  0  0  0  0  0
    1.9717   -1.1912    0.1374 C   0  0  2  0  0  0  0  0  0  0  0  0
    2.7245   -0.0331    0.7302 O   0  0  0  0  0  0  0  0  0  0  0  0
    4.1668   -0.2196    0.3281 C   0  0  1  0  0  0  0  0  0  0  0  0
    4.1823    1.2506   -0.0988 O   0  0  0  0  0  0  0  0  0  0  0  0
    5.5584    1.4978   -0.6467 C   0  0  2  0  0  0  0  0  0  0  0  0
    6.1754   -0.0187   -0.4610 C   0  0  0  0  0  0  0  0  0  0  0  0
    7.5297    0.2156   -0.3394 O   0  0  0  0  0  0  0  0  0  0  0  0
    6.1453    2.0595    0.8763 C   0  0  1  0  0  0  0  0  0  0  0  0
    5.7218    3.4466    0.4545 O   0  0  0  0  0  0  0  0  0  0  0  0
    4.6560    1.8493    1.7271 C   0  0  2  0  0  0  0  0  0  0  0  0
    5.4107    2.0560    3.0065 O   0  0  0  0  0  0  0  0  0  0  0  0
    4.8865    0.1548    1.8709 C   0  0  1  0  0  0  0  0  0  0  0  0
    3.6279   -0.0317    2.7689 N   0  0  0  0  0  0  0  0  0  0  0  0
    2.9465   -1.6839   -1.1481 C   0  0  1  0  0  0  0  0  0  0  0  0
    3.1448   -3.1223   -0.5390 N   0  0  0  0  0  0  0  0  0  0  0  0
    1.6905   -2.1116   -2.0983 C   0  0  0  0  0  0  0  0  0  0  0  0
    1.6013   -0.8965   -3.1743 C   0  0  1  0  0  0  0  0  0  0  0  0
    0.0725   -0.6957   -3.4018 N   0  0  0  0  0  0  0  0  0  0  0  0
    1.6685    0.4335   -2.0685 C   0  0  2  0  0  0  0  0  0  0  0  0
    3.0879    0.0061   -1.9970 O   0  0  0  0  0  0  0  0  0  0  0  0
   -1.7678   -0.3192   -0.2421 C   0  0  2  0  0  0  0  0  0  0  0  0
   -1.5677    0.2007    1.1502 O   0  0  0  0  0  0  0  0  0  0  0  0
   -4.5346    0.0490   -0.8660 C   0  0  2  0  0  0  0  0  0  0  0  0
   -3.7995    1.3073   -0.3344 N   0  0  0  0  0  0  0  0  0  0  0  0
   -6.0303    0.6610   -1.3790 C   0  0  1  0  0  0  0  0  0  0  0  0
   -6.8883    0.0146   -0.3427 O   0  0  0  0  0  0  0  0  0  0  0  0
   -6.1694    2.1890   -0.6242 C   0  0  2  0  0  0  0  0  0  0  0  0
   -4.8465    2.7735   -1.0292 O   0  0  0  0  0  0  0  0  0  0  0  0
  1  2  1  0
  3  2  1  6
  3  4  1  0
  4  5  1  0
  5  6  1  1
  7  6  1  1
  7  8  1  0
  8  9  1  6
  9 10  1  0
  8 11  1  0
 11 12  1  0
 12 13  1  6
 14 13  1  6
 14 15  1  0
 15 16  1  1
 17 16  1  1
 17 18  1  0
 18 19  1  0
 19 20  1  1
 20 21  1  0
 19 22  1  0
 22 23  1  6
 22 24  1  0
 24 25  1  1
 24 26  1  0
 26 27  1  1
 15 28  1  0
 28 29  1  1
 28 30  1  0
 30 31  1  0
 31 32  1  1
 31 33  1  0
 33 34  1  1
 12 35  1  0
 35 36  1  1
  5 37  1  0
 37 38  1  1
 37 39  1  0
 39 40  1  1
 39 41  1  0
 41 42  1  6
 41  3  1  0
 35  7  1  0
 33 14  1  0
 26 17  1  0
M  END
>  <zinc_id>  (632) 
ZINC000060183170

>  <smiles>  (632) 
NC[C@@H]1O[C@H](O[C@@H]2[C@@H](CO)O[C@@H](O[C@@H]3[C@@H](O)[C@H](N)C[C@H](N)[C@H]3O[C@H]3O[C@H](CO)[C@@H](O)[C@H](O)[C@H]3N)[C@@H]2O)[C@H](N)[C@@H](O)[C@@H]1O

$$$$

     RDKit          3D

 60 68  0  0  0  0  0  0  0  0999 V2000
    6.4578    2.0884   -1.4399 C   0  0  0  0  0  0  0  0  0  0  0  0
    5.5619    2.5170   -0.9805 C   0  0  0  0  0  0  0  0  0  0  0  0
    4.9202    1.5779    0.0424 C   0  0  2  0  0  0  0  0  0  0  0  0
    5.1758    1.9980    1.3043 C   0  0  0  0  0  0  0  0  0  0  0  0
    4.9223    3.3041    1.4991 C   0  0  0  0  0  0  0  0  0  0  0  0
    4.1923    3.7959    0.2780 C   0  0  0  0  0  0  0  0  0  0  0  0
    3.1015    3.0576   -0.0841 N   0  0  0  0  0  0  0  0  0  0  0  0
    1.9665    2.9855    0.7407 C   0  0  0  0  0  0  0  0  0  0  0  0
    2.5286    1.9846    1.7523 C   0  0  0  0  0  0  0  0  0  0  0  0
    2.7050    0.8874    0.7987 C   0  0  2  0  0  0  0  0  0  0  0  0
    1.5670    0.1458    0.4535 C   0  0  0  0  0  0  0  0  0  0  0  0
    0.2860    0.5908    0.1459 C   0  0  0  0  0  0  0  0  0  0  0  0
   -0.7469   -0.3049   -0.1395 C   0  0  0  0  0  0  0  0  0  0  0  0
   -2.0793    0.0873   -0.6086 C   0  0  1  0  0  0  0  0  0  0  0  0
   -1.8041    1.4675   -1.1758 C   0  0  0  0  0  0  0  0  0  0  0  0
   -1.3298    1.6552   -2.3064 O   0  0  0  0  0  0  0  0  0  0  0  0
   -1.5802    2.4644   -0.2204 O   0  0  0  0  0  0  0  0  0  0  0  0
   -0.9549    3.6976   -0.5443 C   0  0  0  0  0  0  0  0  0  0  0  0
   -2.5929   -0.5899   -1.8325 C   0  0  0  0  0  0  0  0  0  0  0  0
   -4.1817   -0.6906   -1.4978 C   0  0  2  0  0  0  0  0  0  0  0  0
   -4.1837   -2.2970   -1.8088 C   0  0  0  0  0  0  0  0  0  0  0  0
   -5.4324   -2.5759   -1.1743 N   0  0  0  0  0  0  0  0  0  0  0  0
   -6.4485   -1.8661   -1.8195 C   0  0  0  0  0  0  0  0  0  0  0  0
   -6.1919   -0.7047   -2.6639 C   0  0  2  0  0  0  0  0  0  0  0  0
   -6.6676    0.4225   -1.9688 O   0  0  0  0  0  0  0  0  0  0  0  0
   -6.9596   -0.7441   -3.9629 C   0  0  0  0  0  0  0  0  0  0  0  0
   -8.4149   -0.3935   -3.6833 C   0  0  0  0  0  0  0  0  0  0  0  0
   -4.7360   -0.3855   -2.9963 C   0  0  0  0  0  0  0  0  0  0  0  0
   -5.2422   -2.3679    0.2269 C   0  0  0  0  0  0  0  0  0  0  0  0
   -3.8006   -2.0359    0.6157 C   0  0  0  0  0  0  0  0  0  0  0  0
   -3.7111   -0.6523    1.1817 C   0  0  0  0  0  0  0  0  0  0  0  0
   -4.6861   -0.0696    1.9867 C   0  0  0  0  0  0  0  0  0  0  0  0
   -5.8240   -0.5475    2.6256 C   0  0  0  0  0  0  0  0  0  0  0  0
   -6.8887    0.2730    2.9615 C   0  0  0  0  0  0  0  0  0  0  0  0
   -6.8434    1.5780    2.5129 C   0  0  0  0  0  0  0  0  0  0  0  0
   -5.5868    2.1073    2.2442 C   0  0  0  0  0  0  0  0  0  0  0  0
   -4.5196    1.2924    1.8805 C   0  0  0  0  0  0  0  0  0  0  0  0
   -3.5330    1.4887    1.0287 N   0  0  0  0  0  0  0  0  0  0  0  0
   -3.0697    0.3442    0.4635 C   0  0  0  0  0  0  0  0  0  0  0  0
   -0.4920   -1.6544    0.0682 C   0  0  0  0  0  0  0  0  0  0  0  0
   -0.7763   -2.5073   -1.0024 O   0  0  0  0  0  0  0  0  0  0  0  0
   -0.4048   -3.8645   -0.9711 C   0  0  0  0  0  0  0  0  0  0  0  0
    0.4661   -1.8989    1.0461 C   0  0  0  0  0  0  0  0  0  0  0  0
    1.5529   -1.0273    1.1971 C   0  0  0  0  0  0  0  0  0  0  0  0
    2.8099   -1.3518    1.6263 N   0  0  0  0  0  0  0  0  0  0  0  0
    3.2864   -2.3132    2.5704 C   0  0  0  0  0  0  0  0  0  0  0  0
    3.1691   -2.0485    3.7869 O   0  0  0  0  0  0  0  0  0  0  0  0
    3.8042   -0.1706    1.3455 C   0  0  1  0  0  0  0  0  0  0  0  0
    4.2739   -0.7722   -0.0799 C   0  0  1  0  0  0  0  0  0  0  0  0
    4.8358   -1.9917    0.3410 O   0  0  0  0  0  0  0  0  0  0  0  0
    3.4147   -0.9847   -1.1253 C   0  0  0  0  0  0  0  0  0  0  0  0
    2.9284   -2.1508   -1.3330 O   0  0  0  0  0  0  0  0  0  0  0  0
    3.8799   -0.6139   -2.4112 O   0  0  0  0  0  0  0  0  0  0  0  0
    3.0852   -0.7388   -3.5656 C   0  0  0  0  0  0  0  0  0  0  0  0
    5.5503    0.1767   -0.4711 C   0  0  2  0  0  0  0  0  0  0  0  0
    6.2551   -0.1129    0.8728 O   0  0  0  0  0  0  0  0  0  0  0  0
    7.4550   -0.7785    0.7003 C   0  0  0  0  0  0  0  0  0  0  0  0
    8.2296   -1.2856    1.8677 C   0  0  0  0  0  0  0  0  0  0  0  0
    7.9052   -1.0761   -0.4451 O   0  0  0  0  0  0  0  0  0  0  0  0
    3.3956    1.5792   -0.5083 C   0  0  2  0  0  0  0  0  0  0  0  0
  1  2  1  0
  3  2  1  6
  3  4  1  0
  4  5  2  0
  5  6  1  0
  6  7  1  0
  7  8  1  0
  8  9  1  0
 10  9  1  1
 10 11  1  0
 11 12  2  0
 12 13  1  0
 14 13  1  1
 14 15  1  0
 15 16  2  0
 15 17  1  0
 17 18  1  0
 14 19  1  0
 20 19  1  6
 20 21  1  0
 21 22  1  0
 22 23  1  0
 23 24  1  0
 24 25  1  1
 24 26  1  0
 26 27  1  0
 24 28  1  0
 22 29  1  0
 29 30  1  0
 30 31  1  0
 31 32  1  0
 32 33  2  0
 33 34  1  0
 34 35  2  0
 35 36  1  0
 36 37  2  0
 37 38  1  0
 38 39  1  0
 13 40  2  0
 40 41  1  0
 41 42  1  0
 40 43  1  0
 43 44  2  0
 44 45  1  0
 45 46  1  0
 46 47  2  0
 48 45  1  1
 48 49  1  0
 49 50  1  1
 49 51  1  0
 51 52  2  0
 51 53  1  0
 53 54  1  0
 49 55  1  0
 55 56  1  1
 56 57  1  0
 57 58  1  0
 57 59  2  0
 10 60  1  0
 55  3  1  0
 60  3  1  0
 60  7  1  1
 48 10  1  0
 44 11  1  0
 39 14  1  0
 28 20  1  0
 39 31  2  0
 37 32  1  0
M  END
>  <zinc_id>  (633) 
ZINC000085432549

>  <smiles>  (633) 
CC[C@]1(O)C[C@H]2CN(CCc3c([nH]c4ccccc34)[C@@](C(=O)OC)(c3cc4c(cc3OC)N(C=O)[C@H]3[C@@](O)(C(=O)OC)[C@H](OC(C)=O)[C@]5(CC)C=CCN6CC[C@]43[C@@H]65)C2)C1

$$$$

     RDKit          3D

 24 26  0  0  0  0  0  0  0  0999 V2000
    3.4837    1.7612   -1.7393 C   0  0  0  0  0  0  0  0  0  0  0  0
    3.8902    0.8304   -0.7809 C   0  0  0  0  0  0  0  0  0  0  0  0
    5.1977    0.6436   -0.3560 C   0  0  0  0  0  0  0  0  0  0  0  0
    5.5143   -0.5446    0.2930 C   0  0  0  0  0  0  0  0  0  0  0  0
    4.5686   -1.5619    0.3578 C   0  0  0  0  0  0  0  0  0  0  0  0
    3.2283   -1.2374    0.1782 C   0  0  0  0  0  0  0  0  0  0  0  0
    2.9348    0.0790   -0.1132 C   0  0  0  0  0  0  0  0  0  0  0  0
    1.5709    0.4540   -0.0740 N   0  0  0  0  0  0  0  0  0  0  0  0
    0.6230   -0.4106   -0.7212 C   0  0  0  0  0  0  0  0  0  0  0  0
    0.9133   -1.5895   -1.0674 O   0  0  0  0  0  0  0  0  0  0  0  0
   -0.7534   -0.1269   -0.2851 C   0  0  0  0  0  0  0  0  0  0  0  0
   -1.7601   -1.0783   -0.3267 C   0  0  0  0  0  0  0  0  0  0  0  0
   -2.9751   -0.8184    0.2983 C   0  0  0  0  0  0  0  0  0  0  0  0
   -4.4717   -1.3195   -0.4582 S   0  0  0  0  0  0  0  0  0  0  0  0
   -5.8085   -0.4449    0.2189 N   0  0  0  0  0  0  0  0  0  0  0  0
   -4.4677   -0.9802   -1.9331 O   0  0  0  0  0  0  0  0  0  0  0  0
   -4.6857   -2.7995   -0.3422 O   0  0  0  0  0  0  0  0  0  0  0  0
   -2.9440    0.1661    1.2783 C   0  0  0  0  0  0  0  0  0  0  0  0
   -4.3500    0.2717    2.3097 Cl  0  0  0  0  0  0  0  0  0  0  0  0
   -1.9842    1.1722    1.2894 C   0  0  0  0  0  0  0  0  0  0  0  0
   -0.8247    0.9824    0.5546 C   0  0  0  0  0  0  0  0  0  0  0  0
   -0.1477    2.0795    0.0744 N   0  0  0  0  0  0  0  0  0  0  0  0
    1.3243    1.9654   -0.4741 C   0  0  1  0  0  0  0  0  0  0  0  0
    1.9238    2.5065    0.9689 C   0  0  0  0  0  0  0  0  0  0  0  0
  1  2  1  0
  2  3  2  0
  3  4  1  0
  4  5  2  0
  5  6  1  0
  6  7  2  0
  7  8  1  0
  8  9  1  0
  9 10  2  0
  9 11  1  0
 11 12  2  0
 12 13  1  0
 13 14  1  0
 14 15  1  0
 14 16  2  0
 14 17  2  0
 13 18  2  0
 18 19  1  0
 18 20  1  0
 20 21  2  0
 21 22  1  0
 22 23  1  0
 23 24  1  1
  7  2  1  0
 23  8  1  0
 21 11  1  0
M  END
>  <zinc_id>  (634) 
ZINC000000601254

>  <smiles>  (634) 
Cc1ccccc1N1C(=O)c2cc(S(N)(=O)=O)c(Cl)cc2N[C@H]1C

$$$$

     RDKit          3D

 30 32  0  0  0  0  0  0  0  0999 V2000
   -3.1742    3.6234    1.8017 C   0  0  0  0  0  0  0  0  0  0  0  0
   -3.6948    2.2018    1.8733 C   0  0  0  0  0  0  0  0  0  0  0  0
   -3.7473    1.7081    0.4621 C   0  0  0  0  0  0  0  0  0  0  0  0
   -4.8056    1.9717   -0.1741 O   0  0  0  0  0  0  0  0  0  0  0  0
   -3.0843    0.4970    0.1323 N   0  0  0  0  0  0  0  0  0  0  0  0
   -3.7743   -0.7580    0.1353 C   0  0  0  0  0  0  0  0  0  0  0  0
   -3.3906   -1.6883    1.0908 C   0  0  0  0  0  0  0  0  0  0  0  0
   -3.4303   -3.0417    0.8283 C   0  0  0  0  0  0  0  0  0  0  0  0
   -4.0459   -3.5062   -0.3121 C   0  0  0  0  0  0  0  0  0  0  0  0
   -4.5445   -2.5634   -1.1792 C   0  0  0  0  0  0  0  0  0  0  0  0
   -4.1438   -1.2516   -1.1096 C   0  0  0  0  0  0  0  0  0  0  0  0
   -1.8067    0.5427   -0.5393 C   0  0  0  0  0  0  0  0  0  0  0  0
   -1.9128    1.0112   -1.9695 C   0  0  0  0  0  0  0  0  0  0  0  0
   -2.5797    2.2121   -2.1049 O   0  0  0  0  0  0  0  0  0  0  0  0
   -1.7551    3.2667   -2.4766 C   0  0  0  0  0  0  0  0  0  0  0  0
   -0.8346    1.4303    0.2244 C   0  0  0  0  0  0  0  0  0  0  0  0
    0.4228    1.5023   -0.6034 C   0  0  0  0  0  0  0  0  0  0  0  0
    1.0135    0.2018   -0.8411 N   0  0  0  0  0  0  0  0  0  0  0  0
    1.5667   -0.3682    0.3815 C   0  0  0  0  0  0  0  0  0  0  0  0
    2.8116    0.3979    0.7287 C   0  0  0  0  0  0  0  0  0  0  0  0
    3.9813   -0.2482    0.1382 N   0  0  0  0  0  0  0  0  0  0  0  0
    4.3863   -0.2130   -1.1318 N   0  0  0  0  0  0  0  0  0  0  0  0
    5.6718   -0.5604   -1.1886 N   0  0  0  0  0  0  0  0  0  0  0  0
    6.1076   -0.8700    0.0319 N   0  0  0  0  0  0  0  0  0  0  0  0
    7.4861   -0.7509    0.5003 C   0  0  0  0  0  0  0  0  0  0  0  0
    8.4121   -1.0866   -0.6369 C   0  0  0  0  0  0  0  0  0  0  0  0
    4.9793   -0.9018    0.7819 C   0  0  0  0  0  0  0  0  0  0  0  0
    5.0106   -1.2009    1.9971 O   0  0  0  0  0  0  0  0  0  0  0  0
    0.0586   -0.7101   -1.4570 C   0  0  0  0  0  0  0  0  0  0  0  0
   -1.1837   -0.8478   -0.5867 C   0  0  0  0  0  0  0  0  0  0  0  0
  1  2  1  0
  2  3  1  0
  3  4  2  0
  3  5  1  0
  5  6  1  0
  6  7  2  0
  7  8  1  0
  8  9  2  0
  9 10  1  0
 10 11  2  0
  5 12  1  0
 12 13  1  0
 13 14  1  0
 14 15  1  0
 12 16  1  0
 16 17  1  0
 17 18  1  0
 18 19  1  0
 19 20  1  0
 20 21  1  0
 21 22  1  0
 22 23  2  0
 23 24  1  0
 24 25  1  0
 25 26  1  0
 24 27  1  0
 27 28  2  0
 18 29  1  0
 29 30  1  0
 11  6  1  0
 30 12  1  0
 27 21  1  0
M  END
>  <zinc_id>  (635) 
ZINC000000601281

>  <smiles>  (635) 
CCC(=O)N(c1ccccc1)C1(COC)CCN(CCn2nnn(CC)c2=O)CC1

$$$$

     RDKit          3D

 25 27  0  0  0  0  0  0  0  0999 V2000
   -3.0869    4.4091    1.2674 C   0  0  0  0  0  0  0  0  0  0  0  0
   -3.7171    3.2365    0.7883 O   0  0  0  0  0  0  0  0  0  0  0  0
   -3.0737    2.3161   -0.0405 C   0  0  0  0  0  0  0  0  0  0  0  0
   -2.0574    2.6919   -0.9108 C   0  0  0  0  0  0  0  0  0  0  0  0
   -0.9484    1.8711   -1.0828 C   0  0  0  0  0  0  0  0  0  0  0  0
   -0.9007    0.6144   -0.5136 C   0  0  0  0  0  0  0  0  0  0  0  0
   -2.1056    0.1213   -0.0300 C   0  0  0  0  0  0  0  0  0  0  0  0
   -3.2158    0.9439    0.1276 C   0  0  0  0  0  0  0  0  0  0  0  0
   -1.7668   -1.1182    0.5010 C   0  0  0  0  0  0  0  0  0  0  0  0
   -2.7016   -2.0685    1.1472 C   0  0  0  0  0  0  0  0  0  0  0  0
   -3.4223   -2.7700    0.0564 C   0  0  0  0  0  0  0  0  0  0  0  0
   -3.8291   -2.0428   -0.8972 O   0  0  0  0  0  0  0  0  0  0  0  0
   -3.4194   -4.1336   -0.1286 O   0  0  0  0  0  0  0  0  0  0  0  0
   -0.4054   -1.2499    0.3985 C   0  0  0  0  0  0  0  0  0  0  0  0
    0.3166   -2.4794    0.8499 C   0  0  0  0  0  0  0  0  0  0  0  0
    0.1326   -0.0742   -0.0069 N   0  0  0  0  0  0  0  0  0  0  0  0
    1.4472    0.3809    0.3335 C   0  0  0  0  0  0  0  0  0  0  0  0
    1.5980    1.2861    1.2092 O   0  0  0  0  0  0  0  0  0  0  0  0
    2.6306   -0.0178   -0.4396 C   0  0  0  0  0  0  0  0  0  0  0  0
    3.1891   -1.2737   -0.2302 C   0  0  0  0  0  0  0  0  0  0  0  0
    4.5581   -1.4693   -0.1326 C   0  0  0  0  0  0  0  0  0  0  0  0
    5.4159   -0.4272   -0.4467 C   0  0  0  0  0  0  0  0  0  0  0  0
    7.0075   -0.3067    0.2959 Cl  0  0  0  0  0  0  0  0  0  0  0  0
    4.8516    0.6345   -1.1442 C   0  0  0  0  0  0  0  0  0  0  0  0
    3.5030    0.9258   -0.9711 C   0  0  0  0  0  0  0  0  0  0  0  0
  1  2  1  0
  2  3  1  0
  3  4  2  0
  4  5  1  0
  5  6  2  0
  6  7  1  0
  7  8  2  0
  7  9  1  0
  9 10  1  0
 10 11  1  0
 11 12  2  0
 11 13  1  0
  9 14  2  0
 14 15  1  0
 14 16  1  0
 16 17  1  0
 17 18  2  0
 17 19  1  0
 19 20  2  0
 20 21  1  0
 21 22  2  0
 22 23  1  0
 22 24  1  0
 24 25  2  0
  8  3  1  0
 25 19  1  0
 16  6  1  0
M  END
>  <zinc_id>  (636) 
ZINC000000601283

>  <smiles>  (636) 
COc1ccc2c(c1)c(CC(=O)O)c(C)n2C(=O)c1ccc(Cl)cc1

$$$$

     RDKit          3D

 39 43  0  0  0  0  0  0  0  0999 V2000
  -10.0382    0.8058   -1.4439 C   0  0  0  0  0  0  0  0  0  0  0  0
   -8.7275    0.0873   -1.4037 C   0  0  0  0  0  0  0  0  0  0  0  0
   -7.5017    0.5078   -1.9015 C   0  0  0  0  0  0  0  0  0  0  0  0
   -6.4982   -0.1091   -1.2594 N   0  0  0  0  0  0  0  0  0  0  0  0
   -5.1944    0.4085   -0.9687 C   0  0  0  0  0  0  0  0  0  0  0  0
   -4.1903   -0.4725   -0.5861 C   0  0  0  0  0  0  0  0  0  0  0  0
   -3.1215   -0.0585    0.1997 C   0  0  0  0  0  0  0  0  0  0  0  0
   -1.9205   -0.8356    0.2621 N   0  0  0  0  0  0  0  0  0  0  0  0
   -0.6792   -0.2263    0.6318 C   0  0  0  0  0  0  0  0  0  0  0  0
   -0.6744    1.0340    0.7710 O   0  0  0  0  0  0  0  0  0  0  0  0
    0.5839   -0.8039    0.1555 C   0  0  0  0  0  0  0  0  0  0  0  0
    0.7331   -0.9042   -1.2211 C   0  0  0  0  0  0  0  0  0  0  0  0
    1.7722   -1.6202   -1.7534 C   0  0  0  0  0  0  0  0  0  0  0  0
    2.2921   -2.6435   -0.9726 C   0  0  0  0  0  0  0  0  0  0  0  0
    3.1054   -3.7432   -1.5479 C   0  0  0  0  0  0  0  0  0  0  0  0
    2.3523   -2.4263    0.3979 C   0  0  0  0  0  0  0  0  0  0  0  0
    3.4277   -2.9379    1.1920 N   0  0  0  0  0  0  0  0  0  0  0  0
    4.7794   -2.5197    0.9930 C   0  0  0  0  0  0  0  0  0  0  0  0
    5.8270   -3.3505    1.0721 N   0  0  0  0  0  0  0  0  0  0  0  0
    6.9195   -3.1690    0.2911 C   0  0  0  0  0  0  0  0  0  0  0  0
    7.1630   -1.9019   -0.2241 C   0  0  0  0  0  0  0  0  0  0  0  0
    6.2519   -0.9155    0.1321 C   0  0  0  0  0  0  0  0  0  0  0  0
    6.5082    0.4682   -0.2678 C   0  0  0  0  0  0  0  0  0  0  0  0
    7.7763    0.8369   -0.6347 C   0  0  0  0  0  0  0  0  0  0  0  0
    8.1170    2.1626   -0.5192 C   0  0  0  0  0  0  0  0  0  0  0  0
    7.1519    3.0625   -0.0835 C   0  0  0  0  0  0  0  0  0  0  0  0
    5.8563    2.6969    0.0687 N   0  0  0  0  0  0  0  0  0  0  0  0
    5.5264    1.4258   -0.2267 C   0  0  0  0  0  0  0  0  0  0  0  0
    4.9907   -1.3337    0.3751 N   0  0  0  0  0  0  0  0  0  0  0  0
    1.3358   -1.6563    0.9492 C   0  0  0  0  0  0  0  0  0  0  0  0
   -3.1901    1.1820    0.8124 C   0  0  0  0  0  0  0  0  0  0  0  0
   -4.2302    2.0522    0.5206 C   0  0  0  0  0  0  0  0  0  0  0  0
   -4.0424    3.4845    0.8182 C   0  0  0  0  0  0  0  0  0  0  0  0
   -3.3918    4.0638   -0.2645 F   0  0  0  0  0  0  0  0  0  0  0  0
   -3.3342    3.6117    1.9861 F   0  0  0  0  0  0  0  0  0  0  0  0
   -5.2480    4.1231    0.9565 F   0  0  0  0  0  0  0  0  0  0  0  0
   -4.9927    1.7314   -0.5961 C   0  0  0  0  0  0  0  0  0  0  0  0
   -7.0801   -1.1704   -0.6490 C   0  0  0  0  0  0  0  0  0  0  0  0
   -8.4150   -0.9466   -0.5871 N   0  0  0  0  0  0  0  0  0  0  0  0
  1  2  1  0
  2  3  2  0
  3  4  1  0
  4  5  1  0
  5  6  2  0
  6  7  1  0
  7  8  1  0
  8  9  1  0
  9 10  2  0
  9 11  1  0
 11 12  2  0
 12 13  1  0
 13 14  2  0
 14 15  1  0
 14 16  1  0
 16 17  1  0
 17 18  1  0
 18 19  2  0
 19 20  1  0
 20 21  2  0
 21 22  1  0
 22 23  1  0
 23 24  2  0
 24 25  1  0
 25 26  2  0
 26 27  1  0
 27 28  2  0
 22 29  2  0
 16 30  2  0
  7 31  2  0
 31 32  1  0
 32 33  1  0
 33 34  1  0
 33 35  1  0
 33 36  1  0
 32 37  2  0
  4 38  1  0
 38 39  2  0
 39  2  1  0
 37  5  1  0
 30 11  1  0
 29 18  1  0
 28 23  1  0
M  END
>  <zinc_id>  (637) 
ZINC000006716957

>  <smiles>  (637) 
Cc1cn(-c2cc(NC(=O)c3ccc(C)c(Nc4nccc(-c5cccnc5)n4)c3)cc(C(F)(F)F)c2)cn1

$$$$

     RDKit          3D

 25 27  0  0  0  0  0  0  0  0999 V2000
    0.9908    2.8086    1.1847 C   0  0  0  0  0  0  0  0  0  0  0  0
    1.2477    1.5963    0.6097 C   0  0  0  0  0  0  0  0  0  0  0  0
    2.4271    1.2417    0.1027 C   0  0  0  0  0  0  0  0  0  0  0  0
    3.3460    2.2379   -0.5247 C   0  0  0  0  0  0  0  0  0  0  0  0
    4.3966    2.6944    0.4076 C   0  0  0  0  0  0  0  0  0  0  0  0
    4.1468    3.0573    1.5760 O   0  0  0  0  0  0  0  0  0  0  0  0
    5.7172    2.8105   -0.0266 O   0  0  0  0  0  0  0  0  0  0  0  0
    2.3470   -0.1462   -0.3680 C   0  0  0  0  0  0  0  0  0  0  0  0
    3.2958   -1.0714   -0.7857 C   0  0  0  0  0  0  0  0  0  0  0  0
    3.0382   -2.4357   -0.7359 C   0  0  0  0  0  0  0  0  0  0  0  0
    4.0161   -3.3303   -0.4109 F   0  0  0  0  0  0  0  0  0  0  0  0
    1.7058   -2.8169   -0.8328 C   0  0  0  0  0  0  0  0  0  0  0  0
    0.7268   -1.9444   -0.3745 C   0  0  0  0  0  0  0  0  0  0  0  0
    1.0414   -0.6000   -0.2282 C   0  0  0  0  0  0  0  0  0  0  0  0
    0.3399    0.4456    0.5264 C   0  0  0  0  0  0  0  0  0  0  0  0
   -0.7461    0.2247    1.2672 C   0  0  0  0  0  0  0  0  0  0  0  0
   -1.7675   -0.6356    0.6521 C   0  0  0  0  0  0  0  0  0  0  0  0
   -2.1837   -0.4283   -0.6577 C   0  0  0  0  0  0  0  0  0  0  0  0
   -3.5312   -0.4747   -0.9928 C   0  0  0  0  0  0  0  0  0  0  0  0
   -4.4812   -0.7802   -0.0543 C   0  0  0  0  0  0  0  0  0  0  0  0
   -6.2454   -0.6594   -0.4407 S   0  0  0  0  0  0  0  0  0  0  0  0
   -6.2741    0.9064   -1.4085 C   0  0  0  0  0  0  0  0  0  0  0  0
   -6.7934   -0.1434    0.9227 O   0  0  0  0  0  0  0  0  0  0  0  0
   -4.0532   -1.3117    1.1350 C   0  0  0  0  0  0  0  0  0  0  0  0
   -2.7074   -1.2451    1.4747 C   0  0  0  0  0  0  0  0  0  0  0  0
  1  2  1  0
  2  3  2  0
  3  4  1  0
  4  5  1  0
  5  6  2  0
  5  7  1  0
  3  8  1  0
  8  9  2  0
  9 10  1  0
 10 11  1  0
 10 12  2  0
 12 13  1  0
 13 14  2  0
 14 15  1  0
 15 16  2  0
 16 17  1  0
 17 18  2  0
 18 19  1  0
 19 20  2  0
 21 20  1  1
 21 22  1  0
 21 23  2  0
 20 24  1  0
 24 25  2  0
 15  2  1  0
 25 17  1  0
 14  8  1  0
M  END
>  <zinc_id>  (638) 
ZINC000004475353

>  <smiles>  (638) 
CC1=C(CC(=O)O)c2cc(F)ccc2/C1=C\c1ccc([S@](C)=O)cc1

$$$$

     RDKit          3D

 25 27  0  0  0  0  0  0  0  0999 V2000
    7.3336   -0.5205    0.5273 C   0  0  0  0  0  0  0  0  0  0  0  0
    6.9827   -0.7096    0.5633 O   0  0  0  0  0  0  0  0  0  0  0  0
    5.6989   -1.0952    0.9696 C   0  0  0  0  0  0  0  0  0  0  0  0
    5.0824    0.0962    1.6611 C   0  0  0  0  0  0  0  0  0  0  0  0
    4.2133   -0.2971    2.8262 C   0  0  0  0  0  0  0  0  0  0  0  0
    2.8313   -0.3186    2.4860 O   0  0  0  0  0  0  0  0  0  0  0  0
    2.3592    0.1586    1.2701 C   0  0  0  0  0  0  0  0  0  0  0  0
    2.8500    1.3126    0.6749 C   0  0  0  0  0  0  0  0  0  0  0  0
    2.8941    1.3085   -0.7138 C   0  0  0  0  0  0  0  0  0  0  0  0
    1.8271    0.7639   -1.3469 N   0  0  0  0  0  0  0  0  0  0  0  0
    1.0790   -0.1960   -0.7589 C   0  0  0  0  0  0  0  0  0  0  0  0
   -0.2878   -0.5498   -1.2394 C   0  0  0  0  0  0  0  0  0  0  0  0
   -1.0018    1.0340   -1.8487 S   0  0  0  0  0  0  0  0  0  0  0  0
   -1.1372    0.6949   -3.3626 O   0  0  0  0  0  0  0  0  0  0  0  0
   -2.7186    0.8404   -1.3070 C   0  0  0  0  0  0  0  0  0  0  0  0
   -3.5998   -0.0764   -1.7053 N   0  0  0  0  0  0  0  0  0  0  0  0
   -4.7449    0.1165   -1.0341 C   0  0  0  0  0  0  0  0  0  0  0  0
   -5.9988   -0.4527   -1.0380 C   0  0  0  0  0  0  0  0  0  0  0  0
   -6.8306   -0.3798    0.0702 C   0  0  0  0  0  0  0  0  0  0  0  0
   -6.3476    0.2340    1.2119 C   0  0  0  0  0  0  0  0  0  0  0  0
   -5.2715    1.0988    1.0649 C   0  0  0  0  0  0  0  0  0  0  0  0
   -4.4244    1.0171   -0.0260 C   0  0  0  0  0  0  0  0  0  0  0  0
   -3.2994    1.6539   -0.4099 N   0  0  0  0  0  0  0  0  0  0  0  0
    1.4842   -0.6032    0.5060 C   0  0  0  0  0  0  0  0  0  0  0  0
    1.0268   -1.9537    0.9590 C   0  0  0  0  0  0  0  0  0  0  0  0
  1  2  1  0
  2  3  1  0
  3  4  1  0
  4  5  1  0
  5  6  1  0
  6  7  1  0
  7  8  2  0
  8  9  1  0
  9 10  2  0
 10 11  1  0
 11 12  1  0
 13 12  1  1
 13 14  2  0
 13 15  1  0
 15 16  2  0
 16 17  1  0
 17 18  2  0
 18 19  1  0
 19 20  2  0
 20 21  1  0
 21 22  2  0
 22 23  1  0
 11 24  2  0
 24 25  1  0
 24  7  1  0
 23 15  1  0
 22 17  1  0
M  END
>  <zinc_id>  (639) 
ZINC000004618208

>  <smiles>  (639) 
COCCCOc1ccnc(C[S@@](=O)c2nc3ccccc3[nH]2)c1C

$$$$

     RDKit          3D

 11 11  0  0  0  0  0  0  0  0999 V2000
    3.9210    0.7667   -0.0707 C   0  0  0  0  0  0  0  0  0  0  0  0
    3.0693   -0.4515    0.2048 C   0  0  0  0  0  0  0  0  0  0  0  0
    1.9203   -0.5456   -0.7597 C   0  0  0  0  0  0  0  0  0  0  0  0
    0.6045   -0.2616   -0.1102 C   0  0  0  0  0  0  0  0  0  0  0  0
    0.1451    1.0489   -0.0836 C   0  0  0  0  0  0  0  0  0  0  0  0
   -1.2225    1.2920   -0.0946 C   0  0  0  0  0  0  0  0  0  0  0  0
   -1.6970    2.3921    0.3211 O   0  0  0  0  0  0  0  0  0  0  0  0
   -2.0986    0.2653   -0.2053 N   0  0  0  0  0  0  0  0  0  0  0  0
   -1.6498   -0.9995   -0.0506 C   0  0  0  0  0  0  0  0  0  0  0  0
   -2.6746   -2.2710   -0.1611 S   0  0  0  0  0  0  0  0  0  0  0  0
   -0.3177   -1.2358   -0.0597 N   0  0  0  0  0  0  0  0  0  0  0  0
  1  2  1  0
  2  3  1  0
  3  4  1  0
  4  5  2  0
  5  6  1  0
  6  7  2  0
  6  8  1  0
  8  9  1  0
  9 10  2  0
  9 11  1  0
 11  4  1  0
M  END
>  <zinc_id>  (640) 
ZINC000004640636

>  <smiles>  (640) 
CCCc1cc(=O)[nH]c(=S)[nH]1

$$$$

     RDKit          3D

 37 41  0  0  0  0  0  0  0  0999 V2000
    2.3367   -3.1131    0.0006 C   0  0  0  0  0  0  0  0  0  0  0  0
    1.6532   -2.2344   -0.3206 O   0  0  0  0  0  0  0  0  0  0  0  0
    2.1222   -0.9172   -0.3466 C   0  0  0  0  0  0  0  0  0  0  0  0
    3.3897   -0.7037    0.0835 N   0  0  0  0  0  0  0  0  0  0  0  0
    3.8594    0.5445   -0.1415 C   0  0  0  0  0  0  0  0  0  0  0  0
    5.2175    0.7505   -0.2148 C   0  0  0  0  0  0  0  0  0  0  0  0
    5.6874    2.0490   -0.0743 C   0  0  0  0  0  0  0  0  0  0  0  0
    4.7964    3.0772    0.2111 C   0  0  0  0  0  0  0  0  0  0  0  0
    5.4944    4.5856    1.1569 Br  0  0  0  0  0  0  0  0  0  0  0  0
    3.4360    2.8603    0.0601 C   0  0  0  0  0  0  0  0  0  0  0  0
    2.9348    1.5808   -0.1069 C   0  0  0  0  0  0  0  0  0  0  0  0
    1.5999    1.2655    0.1376 C   0  0  0  0  0  0  0  0  0  0  0  0
    1.1529   -0.0587    0.0703 C   0  0  0  0  0  0  0  0  0  0  0  0
   -0.2339   -0.0343   -0.8039 C   0  0  1  0  0  0  0  0  0  0  0  0
   -0.0234   -1.4856   -1.5540 C   0  0  0  0  0  0  0  0  0  0  0  0
    0.5099   -1.0714   -2.7877 C   0  0  0  0  0  0  0  0  0  0  0  0
    0.6568   -1.9842   -3.8142 C   0  0  0  0  0  0  0  0  0  0  0  0
   -0.3096   -2.9833   -3.8234 C   0  0  0  0  0  0  0  0  0  0  0  0
   -1.2941   -3.0514   -2.8427 C   0  0  0  0  0  0  0  0  0  0  0  0
   -1.2404   -2.1199   -1.8122 C   0  0  0  0  0  0  0  0  0  0  0  0
   -1.1384   -0.6141    0.4660 C   0  0  1  0  0  0  0  0  0  0  0  0
   -0.9098   -1.9057    0.6483 O   0  0  0  0  0  0  0  0  0  0  0  0
   -0.7704    0.2777    1.6243 C   0  0  0  0  0  0  0  0  0  0  0  0
   -1.1707   -0.4420    2.8775 C   0  0  0  0  0  0  0  0  0  0  0  0
   -0.1515   -1.3090    3.4098 N   0  0  0  0  0  0  0  0  0  0  0  0
   -0.7753   -2.6172    3.6141 C   0  0  0  0  0  0  0  0  0  0  0  0
    0.2509   -0.8774    4.7478 C   0  0  0  0  0  0  0  0  0  0  0  0
   -2.5501   -0.3738    0.0865 C   0  0  0  0  0  0  0  0  0  0  0  0
   -3.4728   -1.2734    0.6104 C   0  0  0  0  0  0  0  0  0  0  0  0
   -4.7632   -0.9404    0.9123 C   0  0  0  0  0  0  0  0  0  0  0  0
   -5.2386    0.3021    0.6113 C   0  0  0  0  0  0  0  0  0  0  0  0
   -4.3324    1.2326    0.1165 C   0  0  0  0  0  0  0  0  0  0  0  0
   -4.8757    2.4303   -0.3171 C   0  0  0  0  0  0  0  0  0  0  0  0
   -4.0142    3.3479   -0.8889 C   0  0  0  0  0  0  0  0  0  0  0  0
   -2.6754    3.0614   -0.9612 C   0  0  0  0  0  0  0  0  0  0  0  0
   -2.1743    1.7966   -0.6911 C   0  0  0  0  0  0  0  0  0  0  0  0
   -2.9837    0.9480    0.0563 C   0  0  0  0  0  0  0  0  0  0  0  0
  1  2  1  0
  2  3  1  0
  3  4  2  0
  4  5  1  0
  5  6  2  0
  6  7  1  0
  7  8  2  0
  8  9  1  0
  8 10  1  0
 10 11  2  0
 11 12  1  0
 12 13  2  0
 14 13  1  1
 14 15  1  0
 15 16  2  0
 16 17  1  0
 17 18  2  0
 18 19  1  0
 19 20  2  0
 14 21  1  0
 21 22  1  1
 21 23  1  0
 23 24  1  0
 24 25  1  0
 25 26  1  0
 25 27  1  0
 21 28  1  0
 28 29  2  0
 29 30  1  0
 30 31  2  0
 31 32  1  0
 32 33  2  0
 33 34  1  0
 34 35  2  0
 35 36  1  0
 36 37  2  0
 13  3  1  0
 20 15  1  0
 37 28  1  0
 11  5  1  0
 37 32  1  0
M  END
>  <zinc_id>  (641) 
ZINC000004655029

>  <smiles>  (641) 
COc1nc2ccc(Br)cc2cc1[C@@H](c1ccccc1)[C@@](O)(CCN(C)C)c1cccc2ccccc12

$$$$

     RDKit          3D

 19 20  0  0  0  0  0  0  0  0999 V2000
    1.2448    3.1090   -0.8379 C   0  0  0  0  0  0  0  0  0  0  0  0
    0.0781    2.8574   -0.5004 N   0  0  0  0  0  0  0  0  0  0  0  0
   -0.4489    4.0167    0.2097 C   0  0  0  0  0  0  0  0  0  0  0  0
   -0.0537    1.7043    0.3916 C   0  0  0  0  0  0  0  0  0  0  0  0
   -0.1829    0.4804   -0.7279 C   0  0  1  0  0  0  0  0  0  0  0  0
    0.8065   -0.5358    0.0784 C   0  0  0  0  0  0  0  0  0  0  0  0
    1.0611   -1.6542   -0.7130 C   0  0  0  0  0  0  0  0  0  0  0  0
    2.3573   -2.1282   -0.8925 C   0  0  0  0  0  0  0  0  0  0  0  0
    3.4092   -1.6270   -0.1337 C   0  0  0  0  0  0  0  0  0  0  0  0
    4.7252   -1.6743   -0.6087 O   0  0  0  0  0  0  0  0  0  0  0  0
    3.0241   -0.7597    0.8821 C   0  0  0  0  0  0  0  0  0  0  0  0
    1.8841    0.0136    0.6914 C   0  0  0  0  0  0  0  0  0  0  0  0
   -1.5351   -0.1264    0.0203 C   0  0  0  0  0  0  0  0  0  0  0  0
   -1.2231   -0.2290    1.3470 O   0  0  0  0  0  0  0  0  0  0  0  0
   -2.5885    0.8995   -0.2952 C   0  0  0  0  0  0  0  0  0  0  0  0
   -3.8914    0.1841   -0.6321 C   0  0  0  0  0  0  0  0  0  0  0  0
   -3.9890   -1.0379    0.2596 C   0  0  0  0  0  0  0  0  0  0  0  0
   -2.9729   -2.0708   -0.1877 C   0  0  0  0  0  0  0  0  0  0  0  0
   -1.7049   -1.4217   -0.7071 C   0  0  0  0  0  0  0  0  0  0  0  0
  1  2  1  0
  2  3  1  0
  2  4  1  0
  5  4  1  1
  5  6  1  0
  6  7  2  0
  7  8  1  0
  8  9  2  0
  9 10  1  0
  9 11  1  0
 11 12  2  0
  5 13  1  0
 13 14  1  0
 13 15  1  0
 15 16  1  0
 16 17  1  0
 17 18  1  0
 18 19  1  0
 12  6  1  0
 19 13  1  0
M  END
>  <zinc_id>  (642) 
ZINC000002525885

>  <smiles>  (642) 
CN(C)C[C@@H](c1ccc(O)cc1)C1(O)CCCCC1

$$$$

     RDKit          3D

 26 28  0  0  0  0  0  0  0  0999 V2000
   -6.4484   -1.1410   -0.8860 C   0  0  0  0  0  0  0  0  0  0  0  0
   -5.8735   -0.9284   -0.5994 O   0  0  0  0  0  0  0  0  0  0  0  0
   -5.1209   -0.3762    0.4417 C   0  0  0  0  0  0  0  0  0  0  0  0
   -5.5507   -0.3887    1.7425 C   0  0  0  0  0  0  0  0  0  0  0  0
   -4.8129    0.3068    2.6813 C   0  0  0  0  0  0  0  0  0  0  0  0
   -3.7845    1.0765    2.2728 N   0  0  0  0  0  0  0  0  0  0  0  0
   -3.3662    1.1055    0.9840 C   0  0  0  0  0  0  0  0  0  0  0  0
   -1.9802    1.5619    0.7299 C   0  0  0  0  0  0  0  0  0  0  0  0
   -0.7813    0.4177    1.5329 S   0  0  0  0  0  0  0  0  0  0  0  0
   -1.4927   -0.9428    1.2712 O   0  0  0  0  0  0  0  0  0  0  0  0
    0.5090    0.3913    0.2639 C   0  0  0  0  0  0  0  0  0  0  0  0
    1.1006   -0.6627   -0.2909 N   0  0  0  0  0  0  0  0  0  0  0  0
    2.2396   -0.3198   -0.8983 C   0  0  0  0  0  0  0  0  0  0  0  0
    3.1184   -0.9413   -1.7529 C   0  0  0  0  0  0  0  0  0  0  0  0
    4.3841   -0.3820   -1.8671 C   0  0  0  0  0  0  0  0  0  0  0  0
    4.7966    0.6333   -1.0234 C   0  0  0  0  0  0  0  0  0  0  0  0
    6.1326    0.8552   -0.7483 O   0  0  0  0  0  0  0  0  0  0  0  0
    6.8817   -0.1574   -0.1140 C   0  0  0  0  0  0  0  0  0  0  0  0
    6.3813   -0.3694    1.1506 F   0  0  0  0  0  0  0  0  0  0  0  0
    6.8029   -1.3494   -0.8104 F   0  0  0  0  0  0  0  0  0  0  0  0
    3.7992    1.4697   -0.5373 C   0  0  0  0  0  0  0  0  0  0  0  0
    2.5089    0.9694   -0.4770 C   0  0  0  0  0  0  0  0  0  0  0  0
    1.3407    1.4338    0.0223 N   0  0  0  0  0  0  0  0  0  0  0  0
   -3.9460    0.2542    0.0515 C   0  0  0  0  0  0  0  0  0  0  0  0
   -3.1734   -0.2409   -0.9752 O   0  0  0  0  0  0  0  0  0  0  0  0
   -3.6650   -0.7994   -2.1643 C   0  0  0  0  0  0  0  0  0  0  0  0
  1  2  1  0
  2  3  1  0
  3  4  2  0
  4  5  1  0
  5  6  2  0
  6  7  1  0
  7  8  1  0
  9  8  1  6
  9 10  2  0
  9 11  1  0
 11 12  2  0
 12 13  1  0
 13 14  2  0
 14 15  1  0
 15 16  2  0
 16 17  1  0
 17 18  1  0
 18 19  1  0
 18 20  1  0
 16 21  1  0
 21 22  2  0
 22 23  1  0
  7 24  2  0
 24 25  1  0
 25 26  1  0
 24  3  1  0
 23 11  1  0
 22 13  1  0
M  END
>  <zinc_id>  (643) 
ZINC000004676424

>  <smiles>  (643) 
COc1ccnc(C[S@@](=O)c2nc3ccc(OC(F)F)cc3[nH]2)c1OC

$$$$

     RDKit          3D

 19 19  0  0  0  0  0  0  0  0999 V2000
   -3.9362    2.4828    0.6088 C   0  0  0  0  0  0  0  0  0  0  0  0
   -3.9642    2.5877    0.7890 O   0  0  0  0  0  0  0  0  0  0  0  0
   -4.9233    1.6544    1.1048 C   0  0  0  0  0  0  0  0  0  0  0  0
   -4.6410    0.3795    0.3652 C   0  0  0  0  0  0  0  0  0  0  0  0
   -3.1842    0.1859    0.1153 C   0  0  0  0  0  0  0  0  0  0  0  0
   -2.8831   -0.5532   -1.0227 C   0  0  0  0  0  0  0  0  0  0  0  0
   -1.6097   -1.0447   -1.1795 C   0  0  0  0  0  0  0  0  0  0  0  0
   -0.6742   -1.0699   -0.1513 C   0  0  0  0  0  0  0  0  0  0  0  0
    0.0780   -2.2317    0.0756 O   0  0  0  0  0  0  0  0  0  0  0  0
    1.4708   -2.2737   -0.2494 C   0  0  0  0  0  0  0  0  0  0  0  0
    2.1302   -1.1049    0.7150 C   0  0  2  0  0  0  0  0  0  0  0  0
    1.7923   -0.0061   -0.2812 O   0  0  0  0  0  0  0  0  0  0  0  0
    3.6353   -1.3241    0.0750 C   0  0  0  0  0  0  0  0  0  0  0  0
    4.5333   -0.6530    1.0159 N   0  0  0  0  0  0  0  0  0  0  0  0
    4.9132    0.5948    0.3926 C   0  0  0  0  0  0  0  0  0  0  0  0
    4.1863    1.7833    0.9511 C   0  0  0  0  0  0  0  0  0  0  0  0
    6.3951    0.7580    0.3684 C   0  0  0  0  0  0  0  0  0  0  0  0
   -1.0350   -0.3415    0.9751 C   0  0  0  0  0  0  0  0  0  0  0  0
   -2.2839    0.1766    1.1634 C   0  0  0  0  0  0  0  0  0  0  0  0
  1  2  1  0
  2  3  1  0
  3  4  1  0
  4  5  1  0
  5  6  2  0
  6  7  1  0
  7  8  2  0
  8  9  1  0
  9 10  1  0
 11 10  1  6
 11 12  1  0
 11 13  1  0
 13 14  1  0
 14 15  1  0
 15 16  1  0
 15 17  1  0
  8 18  1  0
 18 19  2  0
 19  5  1  0
M  END
>  <zinc_id>  (644) 
ZINC000001530718

>  <smiles>  (644) 
COCCc1ccc(OC[C@H](O)CNC(C)C)cc1

$$$$

     RDKit          3D

 25 27  0  0  0  0  0  0  0  0999 V2000
    6.5668   -2.5418    0.1033 Cl  0  0  0  0  0  0  0  0  0  0  0  0
    5.1394   -1.7640    0.2063 C   0  0  0  0  0  0  0  0  0  0  0  0
    5.0308   -0.4276   -0.1208 C   0  0  0  0  0  0  0  0  0  0  0  0
    3.8706    0.2453    0.2424 C   0  0  0  0  0  0  0  0  0  0  0  0
    2.7020   -0.4150    0.5850 C   0  0  0  0  0  0  0  0  0  0  0  0
    1.4429    0.1447    0.0311 C   0  0  0  0  0  0  0  0  0  0  0  0
    0.6014    0.6283    1.1748 C   0  0  0  0  0  0  0  0  0  0  0  0
   -0.8010    1.0441    0.5656 C   0  0  1  0  0  0  0  0  0  0  0  0
   -0.2104    1.9189   -0.6173 C   0  0  0  0  0  0  0  0  0  0  0  0
   -0.5318    3.3034   -0.3547 N   0  0  0  0  0  0  0  0  0  0  0  0
    0.3071    4.3556   -0.2354 C   0  0  0  0  0  0  0  0  0  0  0  0
   -0.4187    5.5178   -0.3474 C   0  0  0  0  0  0  0  0  0  0  0  0
   -1.6967    5.1518   -0.5870 N   0  0  0  0  0  0  0  0  0  0  0  0
   -1.7615    3.8105   -0.4671 C   0  0  0  0  0  0  0  0  0  0  0  0
   -1.0372   -0.5326   -0.4692 S   0  0  0  0  0  0  0  0  0  0  0  0
   -2.4828   -1.3759    0.1265 C   0  0  0  0  0  0  0  0  0  0  0  0
   -3.6890   -1.0685   -0.4906 C   0  0  0  0  0  0  0  0  0  0  0  0
   -3.8032    0.3128   -1.5427 Cl  0  0  0  0  0  0  0  0  0  0  0  0
   -4.7636   -1.9331   -0.4074 C   0  0  0  0  0  0  0  0  0  0  0  0
   -4.5695   -3.1839    0.1141 C   0  0  0  0  0  0  0  0  0  0  0  0
   -3.4245   -3.4523    0.8151 C   0  0  0  0  0  0  0  0  0  0  0  0
   -2.3910   -2.5415    0.8629 C   0  0  0  0  0  0  0  0  0  0  0  0
   -0.8508   -2.9221    1.6206 Cl  0  0  0  0  0  0  0  0  0  0  0  0
    2.7915   -1.8004    0.6395 C   0  0  0  0  0  0  0  0  0  0  0  0
    3.9793   -2.4747    0.4009 C   0  0  0  0  0  0  0  0  0  0  0  0
  1  2  1  0
  2  3  2  0
  3  4  1  0
  4  5  2  0
  5  6  1  0
  6  7  1  0
  8  7  1  1
  8  9  1  0
  9 10  1  0
 10 11  1  0
 11 12  2  0
 12 13  1  0
 13 14  2  0
  8 15  1  0
 15 16  1  0
 16 17  2  0
 17 18  1  0
 17 19  1  0
 19 20  2  0
 20 21  1  0
 21 22  2  0
 22 23  1  0
  5 24  1  0
 24 25  2  0
 25  2  1  0
 14 10  1  0
 22 16  1  0
M  END
>  <zinc_id>  (645) 
ZINC000001530973

>  <smiles>  (645) 
Clc1ccc(CC[C@@H](Cn2ccnc2)Sc2c(Cl)cccc2Cl)cc1

$$$$

     RDKit          3D

 19 21  0  0  0  0  0  0  0  0999 V2000
    0.5755    1.2808   -1.0054 O   0  0  0  0  0  0  0  0  0  0  0  0
   -0.3102    0.5732   -0.5831 C   0  0  0  0  0  0  0  0  0  0  0  0
   -1.7592    0.8136   -0.6088 C   0  0  0  0  0  0  0  0  0  0  0  0
   -2.4204    2.0286   -0.7231 C   0  0  0  0  0  0  0  0  0  0  0  0
   -3.7083    2.2128   -0.2887 C   0  0  0  0  0  0  0  0  0  0  0  0
   -4.3804    1.0785    0.1519 C   0  0  0  0  0  0  0  0  0  0  0  0
   -3.7534   -0.1651    0.1254 C   0  0  0  0  0  0  0  0  0  0  0  0
   -2.3779   -0.2514    0.0357 C   0  0  0  0  0  0  0  0  0  0  0  0
   -1.3601   -1.2298    0.4418 C   0  0  0  0  0  0  0  0  0  0  0  0
   -1.6105   -2.4605    0.6127 O   0  0  0  0  0  0  0  0  0  0  0  0
   -0.1588   -0.6854   -0.0394 N   0  0  0  0  0  0  0  0  0  0  0  0
    1.2418   -1.3781    0.2831 C   0  0  1  0  0  0  0  0  0  0  0  0
    1.8490   -0.9835   -1.2303 C   0  0  0  0  0  0  0  0  0  0  0  0
    3.3156   -1.3933   -1.1320 C   0  0  0  0  0  0  0  0  0  0  0  0
    3.9348   -0.2187   -0.4314 C   0  0  0  0  0  0  0  0  0  0  0  0
    4.4054    0.6631   -1.2155 O   0  0  0  0  0  0  0  0  0  0  0  0
    3.2579    0.1161    0.7837 N   0  0  0  0  0  0  0  0  0  0  0  0
    1.8558   -0.0098    0.9634 C   0  0  0  0  0  0  0  0  0  0  0  0
    1.4036    0.0088    2.1457 O   0  0  0  0  0  0  0  0  0  0  0  0
  1  2  2  0
  2  3  1  0
  3  4  2  0
  4  5  1  0
  5  6  2  0
  6  7  1  0
  7  8  2  0
  8  9  1  0
  9 10  2  0
  9 11  1  0
 12 11  1  6
 12 13  1  0
 13 14  1  0
 14 15  1  0
 15 16  2  0
 15 17  1  0
 17 18  1  0
 18 19  2  0
 11  2  1  0
 18 12  1  0
  8  3  1  0
M  END
>  <zinc_id>  (646) 
ZINC000001530947

>  <smiles>  (646) 
O=C1CC[C@H](N2C(=O)c3ccccc3C2=O)C(=O)N1

$$$$

     RDKit          3D

 18 19  0  0  0  0  0  0  0  0999 V2000
    5.0939    0.6018    0.1676 Cl  0  0  0  0  0  0  0  0  0  0  0  0
    3.5174    0.2468    0.2357 C   0  0  0  0  0  0  0  0  0  0  0  0
    3.0430   -1.0568    0.2728 C   0  0  0  0  0  0  0  0  0  0  0  0
    1.7260   -1.3401    0.0041 C   0  0  0  0  0  0  0  0  0  0  0  0
    0.7830   -0.3220    0.0726 C   0  0  0  0  0  0  0  0  0  0  0  0
   -0.3380   -0.5594   -1.0603 C   0  0  2  0  0  0  0  0  0  0  0  0
   -1.4757    0.3123   -0.3455 C   0  0  0  0  0  0  0  0  0  0  0  0
   -2.3895    0.9009   -1.2078 C   0  0  0  0  0  0  0  0  0  0  0  0
   -2.8886    2.1221   -0.7718 C   0  0  0  0  0  0  0  0  0  0  0  0
   -2.7468    2.5441    0.5405 C   0  0  0  0  0  0  0  0  0  0  0  0
   -2.2674    1.5964    1.4388 C   0  0  0  0  0  0  0  0  0  0  0  0
   -1.4660    0.5647    0.9610 C   0  0  0  0  0  0  0  0  0  0  0  0
   -0.8613   -0.7184    1.9850 Cl  0  0  0  0  0  0  0  0  0  0  0  0
   -0.8441   -1.9608   -0.3719 C   0  0  0  0  0  0  0  0  0  0  0  0
   -0.1511   -3.1476   -1.5210 Cl  0  0  0  0  0  0  0  0  0  0  0  0
   -2.5939   -2.0336   -0.5814 Cl  0  0  0  0  0  0  0  0  0  0  0  0
    1.2643    0.9638   -0.0276 C   0  0  0  0  0  0  0  0  0  0  0  0
    2.5949    1.2859    0.2092 C   0  0  0  0  0  0  0  0  0  0  0  0
  1  2  1  0
  2  3  2  0
  3  4  1  0
  4  5  2  0
  6  5  1  1
  6  7  1  0
  7  8  2  0
  8  9  1  0
  9 10  2  0
 10 11  1  0
 11 12  2  0
 12 13  1  0
  6 14  1  0
 14 15  1  0
 14 16  1  0
  5 17  1  0
 17 18  2  0
 18  2  1  0
 12  7  1  0
M  END
>  <zinc_id>  (647) 
ZINC000001530725

>  <smiles>  (647) 
Clc1ccc([C@H](c2ccccc2Cl)C(Cl)Cl)cc1

$$$$

     RDKit          3D

 25 26  0  0  0  0  0  0  0  0999 V2000
    7.8019    0.8138    0.9864 N   0  0  0  0  0  0  0  0  0  0  0  0
    7.0025   -0.1127    0.5458 C   0  0  0  0  0  0  0  0  0  0  0  0
    6.8938   -1.2706    1.3821 N   0  0  0  0  0  0  0  0  0  0  0  0
    5.8375    0.3511   -0.2126 C   0  0  0  0  0  0  0  0  0  0  0  0
    5.1680    1.5186    0.1340 C   0  0  0  0  0  0  0  0  0  0  0  0
    3.7816    1.5727    0.0529 C   0  0  0  0  0  0  0  0  0  0  0  0
    3.0503    0.5580   -0.5529 C   0  0  0  0  0  0  0  0  0  0  0  0
    1.7954    0.1653   -0.0769 O   0  0  0  0  0  0  0  0  0  0  0  0
    1.6509   -0.8471    0.9151 C   0  0  0  0  0  0  0  0  0  0  0  0
    0.2568   -1.4293    0.8666 C   0  0  0  0  0  0  0  0  0  0  0  0
   -0.7108   -0.2535    0.9390 C   0  0  0  0  0  0  0  0  0  0  0  0
   -0.9629    0.1595   -0.5064 C   0  0  0  0  0  0  0  0  0  0  0  0
   -1.4374   -1.1027   -1.2179 C   0  0  0  0  0  0  0  0  0  0  0  0
   -2.2810   -1.8452   -0.3442 O   0  0  0  0  0  0  0  0  0  0  0  0
   -3.6453   -1.5818   -0.2309 C   0  0  0  0  0  0  0  0  0  0  0  0
   -4.4472   -1.3650   -1.3450 C   0  0  0  0  0  0  0  0  0  0  0  0
   -5.4394   -0.3920   -1.3262 C   0  0  0  0  0  0  0  0  0  0  0  0
   -5.6843    0.3644   -0.1870 C   0  0  0  0  0  0  0  0  0  0  0  0
   -6.0327    1.7825   -0.2756 C   0  0  0  0  0  0  0  0  0  0  0  0
   -5.0727    2.5987   -0.5947 N   0  0  0  0  0  0  0  0  0  0  0  0
   -7.1916    2.3414    0.3039 N   0  0  0  0  0  0  0  0  0  0  0  0
   -5.1479   -0.1336    0.9927 C   0  0  0  0  0  0  0  0  0  0  0  0
   -4.1675   -1.1155    0.9694 C   0  0  0  0  0  0  0  0  0  0  0  0
    3.8073   -0.3152   -1.3254 C   0  0  0  0  0  0  0  0  0  0  0  0
    5.1746   -0.4617   -1.1229 C   0  0  0  0  0  0  0  0  0  0  0  0
  1  2  2  0
  2  3  1  0
  2  4  1  0
  4  5  2  0
  5  6  1  0
  6  7  2  0
  7  8  1  0
  8  9  1  0
  9 10  1  0
 10 11  1  0
 11 12  1  0
 12 13  1  0
 13 14  1  0
 14 15  1  0
 15 16  2  0
 16 17  1  0
 17 18  2  0
 18 19  1  0
 19 20  2  0
 19 21  1  0
 18 22  1  0
 22 23  2  0
  7 24  1  0
 24 25  2  0
 25  4  1  0
 23 15  1  0
M  END
>  <zinc_id>  (648) 
ZINC000001530775

>  <smiles>  (648) 
N=C(N)c1ccc(OCCCCCOc2ccc(C(=N)N)cc2)cc1

$$$$

     RDKit          3D

 18 19  0  0  0  0  0  0  0  0999 V2000
    4.3844   -0.0517    1.9495 Cl  0  0  0  0  0  0  0  0  0  0  0  0
    3.3079   -0.4319    0.6107 C   0  0  0  0  0  0  0  0  0  0  0  0
    3.1882    0.3728   -0.5197 C   0  0  0  0  0  0  0  0  0  0  0  0
    2.0386    0.2726   -1.3096 C   0  0  0  0  0  0  0  0  0  0  0  0
    0.9109    0.0355   -0.5128 C   0  0  0  0  0  0  0  0  0  0  0  0
   -0.4904    0.0802   -1.3487 C   0  0  1  0  0  0  0  0  0  0  0  0
   -1.3379   -0.4152   -0.0456 C   0  0  0  0  0  0  0  0  0  0  0  0
   -1.5005   -1.8021   -0.0266 C   0  0  0  0  0  0  0  0  0  0  0  0
   -2.0005   -2.3234    1.1620 C   0  0  0  0  0  0  0  0  0  0  0  0
   -2.8059   -1.4841    1.9230 C   0  0  0  0  0  0  0  0  0  0  0  0
   -3.1466   -0.2516    1.3738 C   0  0  0  0  0  0  0  0  0  0  0  0
   -2.4535    0.2853    0.2882 C   0  0  0  0  0  0  0  0  0  0  0  0
   -2.1422    2.0159    0.4392 Cl  0  0  0  0  0  0  0  0  0  0  0  0
   -0.7549    1.7011   -1.1011 C   0  0  0  0  0  0  0  0  0  0  0  0
   -1.4228    2.0822   -2.7302 Cl  0  0  0  0  0  0  0  0  0  0  0  0
    0.7490    2.5522   -0.9790 Cl  0  0  0  0  0  0  0  0  0  0  0  0
    1.1258   -1.2045    0.1040 C   0  0  0  0  0  0  0  0  0  0  0  0
    2.3504   -1.4335    0.7229 C   0  0  0  0  0  0  0  0  0  0  0  0
  1  2  1  0
  2  3  2  0
  3  4  1  0
  4  5  2  0
  6  5  1  1
  6  7  1  0
  7  8  2  0
  8  9  1  0
  9 10  2  0
 10 11  1  0
 11 12  2  0
 12 13  1  0
  6 14  1  0
 14 15  1  0
 14 16  1  0
  5 17  1  0
 17 18  2  0
 18  2  1  0
 12  7  1  0
M  END
>  <zinc_id>  (649) 
ZINC000001530726

>  <smiles>  (649) 
Clc1ccc([C@@H](c2ccccc2Cl)C(Cl)Cl)cc1

$$$$

     RDKit          3D

 24 26  0  0  0  0  0  0  0  0999 V2000
   -0.3361   -1.1151   -0.7199 C   0  0  0  0  0  0  0  0  0  0  0  0
   -0.2747    0.2959   -0.3584 N   0  0  0  0  0  0  0  0  0  0  0  0
    0.6267    0.9224   -1.3232 C   0  0  0  0  0  0  0  0  0  0  0  0
    2.0012    0.4826   -0.9381 C   0  0  0  0  0  0  0  0  0  0  0  0
    2.5321   -0.7327   -1.3526 C   0  0  0  0  0  0  0  0  0  0  0  0
    3.7682   -1.1303   -0.8577 C   0  0  0  0  0  0  0  0  0  0  0  0
    4.4993   -0.3213    0.0031 C   0  0  0  0  0  0  0  0  0  0  0  0
    5.9832   -0.1789   -0.1359 C   0  0  0  0  0  0  0  0  0  0  0  0
    6.1990    1.0010   -1.0749 C   0  0  0  0  0  0  0  0  0  0  0  0
    6.6448    0.1067    1.1826 C   0  0  0  0  0  0  0  0  0  0  0  0
    6.4983   -1.4357   -0.7901 C   0  0  0  0  0  0  0  0  0  0  0  0
    3.7420    0.6134    0.7003 C   0  0  0  0  0  0  0  0  0  0  0  0
    2.4459    0.9207    0.3040 C   0  0  0  0  0  0  0  0  0  0  0  0
   -1.5509    0.9518   -0.4662 C   0  0  0  0  0  0  0  0  0  0  0  0
   -2.4981    0.3814    0.5166 C   0  0  0  0  0  0  0  0  0  0  0  0
   -2.2936    0.5451    1.8708 C   0  0  0  0  0  0  0  0  0  0  0  0
   -3.3322    0.2611    2.7410 C   0  0  0  0  0  0  0  0  0  0  0  0
   -4.6135    0.0993    2.2531 C   0  0  0  0  0  0  0  0  0  0  0  0
   -4.8677    0.0811    0.8935 C   0  0  0  0  0  0  0  0  0  0  0  0
   -6.1465   -0.0975    0.3896 C   0  0  0  0  0  0  0  0  0  0  0  0
   -6.2237   -0.6683   -0.8705 C   0  0  0  0  0  0  0  0  0  0  0  0
   -5.1407   -0.7051   -1.7235 C   0  0  0  0  0  0  0  0  0  0  0  0
   -3.8952   -0.3398   -1.2551 C   0  0  0  0  0  0  0  0  0  0  0  0
   -3.7678    0.0622    0.0561 C   0  0  0  0  0  0  0  0  0  0  0  0
  1  2  1  0
  2  3  1  0
  3  4  1  0
  4  5  2  0
  5  6  1  0
  6  7  2  0
  7  8  1  0
  8  9  1  0
  8 10  1  0
  8 11  1  0
  7 12  1  0
 12 13  2  0
  2 14  1  0
 14 15  1  0
 15 16  2  0
 16 17  1  0
 17 18  2  0
 18 19  1  0
 19 20  2  0
 20 21  1  0
 21 22  2  0
 22 23  1  0
 23 24  2  0
 13  4  1  0
 24 15  1  0
 24 19  1  0
M  END
>  <zinc_id>  (650) 
ZINC000001530975

>  <smiles>  (650) 
CN(Cc1ccc(C(C)(C)C)cc1)Cc1cccc2ccccc12

$$$$

     RDKit          3D

 22 24  0  0  0  0  0  0  0  0999 V2000
    0.2574   -1.5504   -1.6743 C   0  0  0  0  0  0  0  0  0  0  0  0
   -0.3470   -0.7752   -0.6195 N   0  0  0  0  0  0  0  0  0  0  0  0
    0.3582   -0.8544    0.6311 C   0  0  0  0  0  0  0  0  0  0  0  0
    1.7807   -1.1940    0.5023 C   0  0  0  0  0  0  0  0  0  0  0  0
    2.6031   -0.7323   -0.4098 C   0  0  0  0  0  0  0  0  0  0  0  0
    4.0058   -0.4086   -0.1481 C   0  0  0  0  0  0  0  0  0  0  0  0
    5.0181   -1.1281   -0.7480 C   0  0  0  0  0  0  0  0  0  0  0  0
    6.2838   -1.0864   -0.1807 C   0  0  0  0  0  0  0  0  0  0  0  0
    6.5343   -0.4189    0.9961 C   0  0  0  0  0  0  0  0  0  0  0  0
    5.5794    0.4755    1.4525 C   0  0  0  0  0  0  0  0  0  0  0  0
    4.3725    0.5658    0.7728 C   0  0  0  0  0  0  0  0  0  0  0  0
   -0.6595    0.5757   -1.0142 C   0  0  0  0  0  0  0  0  0  0  0  0
   -1.8161    1.1103   -0.2665 C   0  0  0  0  0  0  0  0  0  0  0  0
   -1.9262    2.4842   -0.0951 C   0  0  0  0  0  0  0  0  0  0  0  0
   -3.0992    3.0417    0.3796 C   0  0  0  0  0  0  0  0  0  0  0  0
   -4.2606    2.2962    0.2389 C   0  0  0  0  0  0  0  0  0  0  0  0
   -4.2013    0.9360    0.0660 C   0  0  0  0  0  0  0  0  0  0  0  0
   -5.3592    0.2378   -0.2495 C   0  0  0  0  0  0  0  0  0  0  0  0
   -5.2592   -1.1446   -0.3398 C   0  0  0  0  0  0  0  0  0  0  0  0
   -4.0426   -1.7531   -0.0657 C   0  0  0  0  0  0  0  0  0  0  0  0
   -2.8722   -1.0214   -0.1648 C   0  0  0  0  0  0  0  0  0  0  0  0
   -2.9502    0.3444   -0.0279 C   0  0  0  0  0  0  0  0  0  0  0  0
  1  2  1  0
  2  3  1  0
  3  4  1  0
  4  5  2  0
  5  6  1  0
  6  7  2  0
  7  8  1  0
  8  9  2  0
  9 10  1  0
 10 11  2  0
  2 12  1  0
 12 13  1  0
 13 14  2  0
 14 15  1  0
 15 16  2  0
 16 17  1  0
 17 18  2  0
 18 19  1  0
 19 20  2  0
 20 21  1  0
 21 22  2  0
 11  6  1  0
 22 13  1  0
 22 17  1  0
M  END
>  <zinc_id>  (651) 
ZINC000001530977

>  <smiles>  (651) 
CN(C/C=C/c1ccccc1)Cc1cccc2ccccc12

$$$$

     RDKit          3D

 18 17  0  0  0  0  0  0  0  0999 V2000
   -0.1786   -2.6237    1.9082 C   0  0  0  0  0  0  0  0  0  0  0  0
   -0.6269   -2.0342    2.3652 C   0  0  0  0  0  0  0  0  0  0  0  0
   -1.2694   -0.8590    1.6383 C   0  0  0  0  0  0  0  0  0  0  0  0
   -1.3185   -1.2126    0.1714 C   0  0  1  0  0  0  0  0  0  0  0  0
   -2.1102   -2.4964   -0.0152 C   0  0  0  0  0  0  0  0  0  0  0  0
   -1.8299   -0.0896   -0.6845 C   0  0  0  0  0  0  0  0  0  0  0  0
   -3.1782    0.2536   -0.3927 O   0  0  0  0  0  0  0  0  0  0  0  0
   -3.5330    1.5776   -0.1189 C   0  0  0  0  0  0  0  0  0  0  0  0
   -4.6339    2.2227   -0.7693 N   0  0  0  0  0  0  0  0  0  0  0  0
   -2.7226    2.2213    0.5951 O   0  0  0  0  0  0  0  0  0  0  0  0
    0.1010   -1.5025   -0.2820 C   0  0  0  0  0  0  0  0  0  0  0  0
    0.7115   -0.3491   -0.8579 O   0  0  0  0  0  0  0  0  0  0  0  0
    1.7806    0.3074   -0.2676 C   0  0  0  0  0  0  0  0  0  0  0  0
    1.8484    0.2634    0.9860 O   0  0  0  0  0  0  0  0  0  0  0  0
    2.9655    0.6645   -0.9879 N   0  0  0  0  0  0  0  0  0  0  0  0
    4.1981    1.0280   -0.2954 C   0  0  0  0  0  0  0  0  0  0  0  0
    5.3222    0.1380   -0.7520 C   0  0  0  0  0  0  0  0  0  0  0  0
    4.4739    2.4906   -0.5252 C   0  0  0  0  0  0  0  0  0  0  0  0
  1  2  1  0
  2  3  1  0
  4  3  1  1
  4  5  1  0
  4  6  1  0
  6  7  1  0
  7  8  1  0
  8  9  1  0
  8 10  2  0
  4 11  1  0
 11 12  1  0
 12 13  1  0
 13 14  2  0
 13 15  1  0
 15 16  1  0
 16 17  1  0
 16 18  1  0
M  END
>  <zinc_id>  (652) 
ZINC000001530950

>  <smiles>  (652) 
CCC[C@@](C)(COC(N)=O)COC(=O)NC(C)C

$$$$

     RDKit          3D

 25 26  0  0  0  0  0  0  0  0999 V2000
    6.6267   -0.1987    0.2584 C   0  0  0  0  0  0  0  0  0  0  0  0
    6.4227   -0.1711   -0.6848 C   0  0  0  0  0  0  0  0  0  0  0  0
    5.2752    0.5303   -1.3812 C   0  0  0  0  0  0  0  0  0  0  0  0
    4.9897   -0.0833   -2.6545 N   0  0  0  0  0  0  0  0  0  0  0  0
    3.6246   -0.5242   -2.7870 C   0  0  0  0  0  0  0  0  0  0  0  0
    2.8852    0.0277   -1.3809 C   0  0  2  0  0  0  0  0  0  0  0  0
    3.0477   -1.3577   -0.7097 O   0  0  0  0  0  0  0  0  0  0  0  0
    1.3679   -0.3978   -1.9693 C   0  0  0  0  0  0  0  0  0  0  0  0
    0.4917    0.3434   -1.1298 O   0  0  0  0  0  0  0  0  0  0  0  0
    0.8335    0.6746    0.1806 C   0  0  0  0  0  0  0  0  0  0  0  0
    1.7421    1.6844    0.4753 C   0  0  0  0  0  0  0  0  0  0  0  0
    2.2950    1.7171    1.7299 C   0  0  0  0  0  0  0  0  0  0  0  0
    1.8487    0.8222    2.6754 C   0  0  0  0  0  0  0  0  0  0  0  0
    0.7180    0.0795    2.4479 C   0  0  0  0  0  0  0  0  0  0  0  0
    0.1469    0.0044    1.1852 C   0  0  0  0  0  0  0  0  0  0  0  0
   -1.2417   -0.4279    0.9845 C   0  0  0  0  0  0  0  0  0  0  0  0
   -1.9066   -0.7633    1.9902 O   0  0  0  0  0  0  0  0  0  0  0  0
   -1.9543   -0.0552   -0.2506 C   0  0  0  0  0  0  0  0  0  0  0  0
   -3.1598   -0.9129   -0.4999 C   0  0  0  0  0  0  0  0  0  0  0  0
   -4.3614   -0.0624   -0.2256 C   0  0  0  0  0  0  0  0  0  0  0  0
   -4.6312    0.4215    1.0487 C   0  0  0  0  0  0  0  0  0  0  0  0
   -5.9030    0.3171    1.5997 C   0  0  0  0  0  0  0  0  0  0  0  0
   -6.9769   -0.0128    0.7816 C   0  0  0  0  0  0  0  0  0  0  0  0
   -6.7366   -0.0204   -0.5877 C   0  0  0  0  0  0  0  0  0  0  0  0
   -5.4443   -0.0790   -1.0966 C   0  0  0  0  0  0  0  0  0  0  0  0
  1  2  1  0
  2  3  1  0
  3  4  1  0
  4  5  1  0
  6  5  1  6
  6  7  1  0
  6  8  1  0
  8  9  1  0
  9 10  1  0
 10 11  2  0
 11 12  1  0
 12 13  2  0
 13 14  1  0
 14 15  2  0
 15 16  1  0
 16 17  2  0
 16 18  1  0
 18 19  1  0
 19 20  1  0
 20 21  2  0
 21 22  1  0
 22 23  2  0
 23 24  1  0
 24 25  2  0
 15 10  1  0
 25 20  1  0
M  END
>  <zinc_id>  (653) 
ZINC000001530759

>  <smiles>  (653) 
CCCNC[C@H](O)COc1ccccc1C(=O)CCc1ccccc1

$$$$

     RDKit          3D

 20 22  0  0  0  0  0  0  0  0999 V2000
    5.3004    1.3145   -0.0388 C   0  0  0  0  0  0  0  0  0  0  0  0
    4.4060    0.2845    0.4365 N   0  0  0  0  0  0  0  0  0  0  0  0
    3.7369   -0.3242   -0.7029 C   0  0  0  0  0  0  0  0  0  0  0  0
    2.3511   -0.7416   -0.2267 C   0  0  0  0  0  0  0  0  0  0  0  0
    1.4738    0.4376    0.0735 C   0  0  0  0  0  0  0  0  0  0  0  0
    0.1040    0.2296   -0.4936 C   0  0  0  0  0  0  0  0  0  0  0  0
   -0.3885   -1.1453   -0.4284 C   0  0  0  0  0  0  0  0  0  0  0  0
    0.1656   -1.9679   -1.4029 C   0  0  0  0  0  0  0  0  0  0  0  0
    0.0545   -3.3498   -1.3132 C   0  0  0  0  0  0  0  0  0  0  0  0
   -0.3677   -3.8667   -0.0947 C   0  0  0  0  0  0  0  0  0  0  0  0
   -1.1637   -3.0688    0.7182 C   0  0  0  0  0  0  0  0  0  0  0  0
   -1.3377   -1.7298    0.3989 C   0  0  0  0  0  0  0  0  0  0  0  0
   -2.4690   -1.0978    1.0441 C   0  0  0  0  0  0  0  0  0  0  0  0
   -2.6782    0.1827    1.2368 C   0  0  0  0  0  0  0  0  0  0  0  0
   -2.0095    1.3136    0.6309 C   0  0  0  0  0  0  0  0  0  0  0  0
   -2.7742    2.4721    0.7012 C   0  0  0  0  0  0  0  0  0  0  0  0
   -2.0833    3.6697    0.5769 C   0  0  0  0  0  0  0  0  0  0  0  0
   -1.0186    3.6560   -0.3137 C   0  0  0  0  0  0  0  0  0  0  0  0
   -0.4406    2.4665   -0.6804 C   0  0  0  0  0  0  0  0  0  0  0  0
   -0.8612    1.2650   -0.1216 C   0  0  0  0  0  0  0  0  0  0  0  0
  1  2  1  0
  2  3  1  0
  3  4  1  0
  4  5  1  0
  5  6  1  0
  6  7  1  0
  7  8  2  0
  8  9  1  0
  9 10  2  0
 10 11  1  0
 11 12  2  0
 12 13  1  0
 13 14  2  0
 14 15  1  0
 15 16  2  0
 16 17  1  0
 17 18  2  0
 18 19  1  0
 19 20  2  0
 20  6  1  0
 12  7  1  0
 20 15  1  0
M  END
>  <zinc_id>  (654) 
ZINC000001530764

>  <smiles>  (654) 
CNCCCC1c2ccccc2C=Cc2ccccc21

$$$$

     RDKit          3D

 19 19  0  0  0  0  0  0  0  0999 V2000
   -6.9686    1.1077    0.6602 C   0  0  0  0  0  0  0  0  0  0  0  0
   -6.4254   -0.0461   -0.1600 C   0  0  0  0  0  0  0  0  0  0  0  0
   -5.5522   -0.9181    0.7311 C   0  0  0  0  0  0  0  0  0  0  0  0
   -4.4659   -0.0258    1.3074 C   0  0  0  0  0  0  0  0  0  0  0  0
   -3.7233    0.5119    0.1712 N   0  0  0  0  0  0  0  0  0  0  0  0
   -2.2984    0.5142    0.2089 C   0  0  0  0  0  0  0  0  0  0  0  0
   -1.6422   -0.6486    0.5925 C   0  0  0  0  0  0  0  0  0  0  0  0
   -0.2742   -0.6611    0.6828 C   0  0  0  0  0  0  0  0  0  0  0  0
    0.4204    0.3987    0.1442 C   0  0  0  0  0  0  0  0  0  0  0  0
    1.8041    0.2927   -0.3256 C   0  0  0  0  0  0  0  0  0  0  0  0
    2.5792    1.2949   -0.2954 O   0  0  0  0  0  0  0  0  0  0  0  0
    2.4033   -0.9254   -0.5896 O   0  0  0  0  0  0  0  0  0  0  0  0
    3.7382   -1.2367   -0.2650 C   0  0  0  0  0  0  0  0  0  0  0  0
    4.5474   -0.0188    0.1161 C   0  0  0  0  0  0  0  0  0  0  0  0
    5.8039   -0.0827   -0.6276 N   0  0  0  0  0  0  0  0  0  0  0  0
    6.1222    1.2085   -1.1998 C   0  0  0  0  0  0  0  0  0  0  0  0
    5.7251   -1.1018   -1.6718 C   0  0  0  0  0  0  0  0  0  0  0  0
   -0.2132    1.6155    0.1417 C   0  0  0  0  0  0  0  0  0  0  0  0
   -1.5802    1.6913    0.3788 C   0  0  0  0  0  0  0  0  0  0  0  0
  1  2  1  0
  2  3  1  0
  3  4  1  0
  4  5  1  0
  5  6  1  0
  6  7  2  0
  7  8  1  0
  8  9  2  0
  9 10  1  0
 10 11  2  0
 10 12  1  0
 12 13  1  0
 13 14  1  0
 14 15  1  0
 15 16  1  0
 15 17  1  0
  9 18  1  0
 18 19  2  0
 19  6  1  0
M  END
>  <zinc_id>  (655) 
ZINC000001530811

>  <smiles>  (655) 
CCCCNc1ccc(C(=O)OCCN(C)C)cc1

$$$$

     RDKit          3D

 18 18  0  0  0  0  0  0  0  0999 V2000
   -4.4710    2.2562    0.0941 C   0  0  0  0  0  0  0  0  0  0  0  0
   -3.5561    1.0919    0.2920 C   0  0  0  0  0  0  0  0  0  0  0  0
   -3.8660    0.0797    1.1928 C   0  0  0  0  0  0  0  0  0  0  0  0
   -3.6243   -1.2405    0.8314 C   0  0  0  0  0  0  0  0  0  0  0  0
   -2.7133   -1.5179   -0.1790 C   0  0  0  0  0  0  0  0  0  0  0  0
   -2.7416   -2.8038   -0.9354 C   0  0  0  0  0  0  0  0  0  0  0  0
   -2.0021   -0.4393   -0.6689 C   0  0  0  0  0  0  0  0  0  0  0  0
   -0.8269   -0.7240   -1.3671 O   0  0  0  0  0  0  0  0  0  0  0  0
    0.3560   -0.9101   -0.5976 C   0  0  0  0  0  0  0  0  0  0  0  0
    0.8297    0.4605   -0.1883 C   0  0  0  0  0  0  0  0  0  0  0  0
    1.9879    0.2857    0.7799 C   0  0  0  0  0  0  0  0  0  0  0  0
    3.2170   -0.0799   -0.0048 C   0  0  0  0  0  0  0  0  0  0  0  0
    2.9409   -0.1808   -1.4981 C   0  0  0  0  0  0  0  0  0  0  0  0
    3.7739   -1.3797    0.5108 C   0  0  0  0  0  0  0  0  0  0  0  0
    4.2021    1.0367    0.1461 C   0  0  0  0  0  0  0  0  0  0  0  0
    5.1722    0.9192    0.9255 O   0  0  0  0  0  0  0  0  0  0  0  0
    3.7832    2.2839   -0.3262 O   0  0  0  0  0  0  0  0  0  0  0  0
   -2.4616    0.8623   -0.5242 C   0  0  0  0  0  0  0  0  0  0  0  0
  1  2  1  0
  2  3  2  0
  3  4  1  0
  4  5  2  0
  5  6  1  0
  5  7  1  0
  7  8  1  0
  8  9  1  0
  9 10  1  0
 10 11  1  0
 11 12  1  0
 12 13  1  0
 12 14  1  0
 12 15  1  0
 15 16  2  0
 15 17  1  0
  7 18  2  0
 18  2  1  0
M  END
>  <zinc_id>  (656) 
ZINC000001530641

>  <smiles>  (656) 
Cc1ccc(C)c(OCCCC(C)(C)C(=O)O)c1

$$$$

     RDKit          3D

 14 14  0  0  0  0  0  0  0  0999 V2000
    0.5638   -1.9133   -0.9364 O   0  0  0  0  0  0  0  0  0  0  0  0
    0.0782   -0.7945   -0.1042 P   0  0  2  0  0  0  0  0  0  0  0  0
    1.3962    0.2302    0.4118 N   0  0  0  0  0  0  0  0  0  0  0  0
    2.6433   -0.3816    0.0280 C   0  0  0  0  0  0  0  0  0  0  0  0
    3.7330    0.6587    0.0205 C   0  0  0  0  0  0  0  0  0  0  0  0
    5.2912   -0.1751    0.2230 Cl  0  0  0  0  0  0  0  0  0  0  0  0
   -0.6082   -1.5045    1.2803 O   0  0  0  0  0  0  0  0  0  0  0  0
   -1.7705   -2.1470    0.8230 C   0  0  0  0  0  0  0  0  0  0  0  0
   -2.8061   -1.1430    0.3746 C   0  0  0  0  0  0  0  0  0  0  0  0
   -2.4434   -0.4762   -0.9255 C   0  0  0  0  0  0  0  0  0  0  0  0
   -1.1293    0.0562   -0.9767 N   0  0  0  0  0  0  0  0  0  0  0  0
   -1.0050    1.4677   -1.0158 C   0  0  0  0  0  0  0  0  0  0  0  0
   -1.8939    2.2269   -0.0839 C   0  0  0  0  0  0  0  0  0  0  0  0
   -2.0495    3.8954   -0.6792 Cl  0  0  0  0  0  0  0  0  0  0  0  0
  1  2  2  0
  2  3  1  1
  3  4  1  0
  4  5  1  0
  5  6  1  0
  2  7  1  0
  7  8  1  0
  8  9  1  0
  9 10  1  0
 10 11  1  0
 11 12  1  0
 12 13  1  0
 13 14  1  0
 11  2  1  0
M  END
>  <zinc_id>  (657) 
ZINC000001530660

>  <smiles>  (657) 
O=[P@]1(NCCCl)OCCCN1CCCl

$$$$

     RDKit          3D

 31 35  0  0  0  0  0  0  0  0999 V2000
   -2.4572    3.2603    1.1331 C   0  0  0  0  0  0  0  0  0  0  0  0
   -2.7922    2.2740    1.0064 C   0  0  0  0  0  0  0  0  0  0  0  0
   -4.2361    2.2339    1.4965 C   0  0  0  0  0  0  0  0  0  0  0  0
   -1.9770    1.4745    1.7778 O   0  0  0  0  0  0  0  0  0  0  0  0
   -2.7503    0.1761    1.5185 C   0  0  2  0  0  0  0  0  0  0  0  0
   -1.4119   -0.8081    1.6518 C   0  0  0  0  0  0  0  0  0  0  0  0
   -0.4660    0.2039    0.8119 C   0  0  1  0  0  0  0  0  0  0  0  0
    0.6694   -0.9697    0.3582 C   0  0  2  0  0  0  0  0  0  0  0  0
    1.5163   -0.8611    1.7215 C   0  0  0  0  0  0  0  0  0  0  0  0
    2.5826   -2.0190    1.1484 C   0  0  2  0  0  0  0  0  0  0  0  0
    3.3463   -2.0818    2.4649 F   0  0  0  0  0  0  0  0  0  0  0  0
    3.5349   -0.8506    0.5103 C   0  0  0  0  0  0  0  0  0  0  0  0
    3.9338    0.0747    1.3409 C   0  0  0  0  0  0  0  0  0  0  0  0
    4.8370    1.0944    0.7889 C   0  0  0  0  0  0  0  0  0  0  0  0
    5.0225    2.1562    1.4086 O   0  0  0  0  0  0  0  0  0  0  0  0
    4.9972    0.9433   -0.6910 C   0  0  0  0  0  0  0  0  0  0  0  0
    3.6311    0.7845   -1.2824 C   0  0  0  0  0  0  0  0  0  0  0  0
    2.8799   -0.4324   -0.7358 C   0  0  1  0  0  0  0  0  0  0  0  0
    2.8389   -1.4011   -1.7867 C   0  0  0  0  0  0  0  0  0  0  0  0
    1.4869    0.2920   -0.4001 C   0  0  1  0  0  0  0  0  0  0  0  0
    0.7891    0.0576   -1.9588 C   0  0  1  0  0  0  0  0  0  0  0  0
    0.4385   -1.4136   -1.8012 O   0  0  0  0  0  0  0  0  0  0  0  0
   -0.7131    0.5823   -1.5341 C   0  0  0  0  0  0  0  0  0  0  0  0
   -1.3407   -0.1536   -0.5093 C   0  0  1  0  0  0  0  0  0  0  0  0
   -1.5644   -1.6218   -0.5475 C   0  0  0  0  0  0  0  0  0  0  0  0
   -2.6261    0.3603   -0.1214 C   0  0  1  0  0  0  0  0  0  0  0  0
   -3.8074   -0.4743   -0.5187 C   0  0  0  0  0  0  0  0  0  0  0  0
   -4.4060   -0.2887   -1.5585 O   0  0  0  0  0  0  0  0  0  0  0  0
   -4.1634   -1.7170    0.2367 C   0  0  0  0  0  0  0  0  0  0  0  0
   -4.9674   -2.5727   -0.4610 O   0  0  0  0  0  0  0  0  0  0  0  0
   -2.8252    1.6974   -0.2549 O   0  0  0  0  0  0  0  0  0  0  0  0
  1  2  1  0
  2  3  1  0
  2  4  1  0
  5  4  1  1
  5  6  1  0
  7  6  1  1
  7  8  1  0
  8  9  1  1
  9 10  1  0
 10 11  1  1
 10 12  1  0
 12 13  2  0
 13 14  1  0
 14 15  2  0
 14 16  1  0
 16 17  1  0
 17 18  1  0
 18 19  1  6
 20 18  1  6
 20 21  1  0
 21 22  1  1
 21 23  1  0
 23 24  1  0
 24 25  1  6
 24 26  1  0
 26 27  1  6
 27 28  2  0
 27 29  1  0
 29 30  1  0
 26 31  1  0
 31  2  1  0
 26  5  1  0
 24  7  1  0
 20  8  1  0
 18 12  1  0
M  END
>  <zinc_id>  (658) 
ZINC000004097308

>  <smiles>  (658) 
CC1(C)O[C@@H]2C[C@H]3[C@@H]4C[C@H](F)C5=CC(=O)CC[C@]5(C)[C@H]4[C@@H](O)C[C@]3(C)[C@]2(C(=O)CO)O1

$$$$

     RDKit          3D

 39 41  0  0  0  0  0  0  0  0999 V2000
   -4.4620   -4.7071   -2.1082 C   0  0  0  0  0  0  0  0  0  0  0  0
   -3.1225   -5.1778   -1.5960 C   0  0  0  0  0  0  0  0  0  0  0  0
   -3.0733   -4.7804   -0.1545 C   0  0  0  0  0  0  0  0  0  0  0  0
   -4.0528   -5.0244    0.5813 O   0  0  0  0  0  0  0  0  0  0  0  0
   -2.1065   -3.9788    0.4014 O   0  0  0  0  0  0  0  0  0  0  0  0
   -2.6584   -2.6307    0.9989 C   0  0  2  0  0  0  0  0  0  0  0  0
   -1.7590   -1.8426    0.0306 O   0  0  0  0  0  0  0  0  0  0  0  0
   -1.1685   -0.4927    0.6339 P   0  0  1  0  0  0  0  0  0  0  0  0
   -0.9918    0.4382   -0.5725 O   0  0  0  0  0  0  0  0  0  0  0  0
   -2.0468    0.4870    1.8127 C   0  0  0  0  0  0  0  0  0  0  0  0
   -2.4223    1.8679    1.3635 C   0  0  0  0  0  0  0  0  0  0  0  0
   -3.5930    1.6957    0.4030 C   0  0  0  0  0  0  0  0  0  0  0  0
   -3.3717    2.3799   -0.9104 C   0  0  0  0  0  0  0  0  0  0  0  0
   -3.6826    3.8382   -0.8231 C   0  0  0  0  0  0  0  0  0  0  0  0
   -2.6376    4.7342   -0.8328 C   0  0  0  0  0  0  0  0  0  0  0  0
   -2.9136    6.0504   -0.5451 C   0  0  0  0  0  0  0  0  0  0  0  0
   -4.2084    6.4917   -0.7880 C   0  0  0  0  0  0  0  0  0  0  0  0
   -5.2343    5.5799   -0.5631 C   0  0  0  0  0  0  0  0  0  0  0  0
   -4.9632    4.2253   -0.4984 C   0  0  0  0  0  0  0  0  0  0  0  0
    0.5560   -0.7740    1.1779 C   0  0  0  0  0  0  0  0  0  0  0  0
    1.4217   -0.8619   -0.0146 C   0  0  0  0  0  0  0  0  0  0  0  0
    1.1401   -1.7725   -0.8188 O   0  0  0  0  0  0  0  0  0  0  0  0
    2.2199    0.2654   -0.2875 N   0  0  0  0  0  0  0  0  0  0  0  0
    3.3706    0.5564    0.5767 C   0  0  0  0  0  0  0  0  0  0  0  0
    4.0634   -0.9310    0.5385 C   0  0  2  0  0  0  0  0  0  0  0  0
    5.5871   -0.3815    0.2806 C   0  0  0  0  0  0  0  0  0  0  0  0
    5.6050    0.8985   -0.3558 C   0  0  0  0  0  0  0  0  0  0  0  0
    6.1046    2.0971    0.3384 C   0  0  0  0  0  0  0  0  0  0  0  0
    6.5907    1.8980    1.7350 C   0  0  0  0  0  0  0  0  0  0  0  0
    7.2892    0.5457    1.8264 C   0  0  0  0  0  0  0  0  0  0  0  0
    6.2456   -0.5323    1.6121 C   0  0  0  0  0  0  0  0  0  0  0  0
    3.7939   -1.2152   -1.0552 C   0  0  0  0  0  0  0  0  0  0  0  0
    3.2641    0.2838   -1.4818 C   0  0  1  0  0  0  0  0  0  0  0  0
    2.1920   -0.2830   -2.5715 C   0  0  0  0  0  0  0  0  0  0  0  0
    2.7894   -0.9283   -3.4888 O   0  0  0  0  0  0  0  0  0  0  0  0
    1.5136    0.8483   -3.0537 O   0  0  0  0  0  0  0  0  0  0  0  0
   -1.5266   -2.5892    2.2392 C   0  0  0  0  0  0  0  0  0  0  0  0
   -2.4952   -2.2343    3.3788 C   0  0  0  0  0  0  0  0  0  0  0  0
   -1.2570   -4.0436    2.5910 C   0  0  0  0  0  0  0  0  0  0  0  0
  1  2  1  0
  2  3  1  0
  3  4  2  0
  3  5  1  0
  6  5  1  6
  6  7  1  0
  8  7  1  6
  8  9  2  0
  8 10  1  0
 10 11  1  0
 11 12  1  0
 12 13  1  0
 13 14  1  0
 14 15  2  0
 15 16  1  0
 16 17  2  0
 17 18  1  0
 18 19  2  0
  8 20  1  0
 20 21  1  0
 21 22  2  0
 21 23  1  0
 23 24  1  0
 24 25  1  0
 25 26  1  6
 26 27  1  0
 27 28  1  0
 28 29  1  0
 29 30  1  0
 30 31  1  0
 25 32  1  0
 32 33  1  0
 33 34  1  6
 34 35  2  0
 34 36  1  0
  6 37  1  0
 37 38  1  0
 37 39  1  0
 19 14  1  0
 33 23  1  0
 31 26  1  0
M  END
>  <zinc_id>  (659) 
ZINC000004097309

>  <smiles>  (659) 
CCC(=O)O[C@H](O[P@@](=O)(CCCCc1ccccc1)CC(=O)N1C[C@H](C2CCCCC2)C[C@H]1C(=O)O)C(C)C

$$$$

     RDKit          3D

 39 41  0  0  0  0  0  0  0  0999 V2000
    2.3656    6.4903   -1.5045 C   0  0  0  0  0  0  0  0  0  0  0  0
    1.1505    5.7172   -1.0762 C   0  0  0  0  0  0  0  0  0  0  0  0
    1.0839    4.4597   -1.8860 C   0  0  0  0  0  0  0  0  0  0  0  0
    2.0675    4.1253   -2.6223 O   0  0  0  0  0  0  0  0  0  0  0  0
    0.6042    3.3461   -1.2803 O   0  0  0  0  0  0  0  0  0  0  0  0
    0.0631    2.1905   -2.2243 C   0  0  2  0  0  0  0  0  0  0  0  0
    1.2325    1.2374   -1.7975 O   0  0  0  0  0  0  0  0  0  0  0  0
    1.2335    1.2798   -0.1315 P   0  0  2  0  0  0  0  0  0  0  0  0
    1.9280    2.4909    0.4551 O   0  0  0  0  0  0  0  0  0  0  0  0
    2.2846   -0.1147    0.3938 C   0  0  0  0  0  0  0  0  0  0  0  0
    2.8246    0.1853    1.7865 C   0  0  0  0  0  0  0  0  0  0  0  0
    4.1831   -0.4975    1.8926 C   0  0  0  0  0  0  0  0  0  0  0  0
    3.9383   -1.9326    1.4361 C   0  0  0  0  0  0  0  0  0  0  0  0
    5.2605   -2.5483    1.1514 C   0  0  0  0  0  0  0  0  0  0  0  0
    6.4524   -1.8774    1.2696 C   0  0  0  0  0  0  0  0  0  0  0  0
    7.5910   -2.6311    1.5275 C   0  0  0  0  0  0  0  0  0  0  0  0
    7.5245   -3.9866    1.8040 C   0  0  0  0  0  0  0  0  0  0  0  0
    6.3716   -4.6821    1.4644 C   0  0  0  0  0  0  0  0  0  0  0  0
    5.2906   -3.9310    1.0180 C   0  0  0  0  0  0  0  0  0  0  0  0
   -0.3690    1.0345    0.6299 C   0  0  0  0  0  0  0  0  0  0  0  0
   -0.9031   -0.3358    0.3559 C   0  0  0  0  0  0  0  0  0  0  0  0
   -0.5478   -0.8664   -0.7374 O   0  0  0  0  0  0  0  0  0  0  0  0
   -2.2359   -0.5596    0.7755 N   0  0  0  0  0  0  0  0  0  0  0  0
   -3.0750    0.1839    1.6771 C   0  0  0  0  0  0  0  0  0  0  0  0
   -4.2865   -0.4708    0.7527 C   0  0  2  0  0  0  0  0  0  0  0  0
   -5.4358    0.0684    1.8130 C   0  0  0  0  0  0  0  0  0  0  0  0
   -6.2577   -1.0800    2.2247 C   0  0  0  0  0  0  0  0  0  0  0  0
   -6.8381   -1.9021    1.1210 C   0  0  0  0  0  0  0  0  0  0  0  0
   -7.6801   -1.0504    0.2033 C   0  0  0  0  0  0  0  0  0  0  0  0
   -6.7900    0.0696   -0.2805 C   0  0  0  0  0  0  0  0  0  0  0  0
   -6.2706    0.9231    0.8618 C   0  0  0  0  0  0  0  0  0  0  0  0
   -4.0768   -1.9167    1.5032 C   0  0  0  0  0  0  0  0  0  0  0  0
   -2.4270   -2.0659    1.2891 C   0  0  1  0  0  0  0  0  0  0  0  0
   -2.5895   -2.6561   -0.2367 C   0  0  0  0  0  0  0  0  0  0  0  0
   -3.3420   -2.0386   -0.9793 O   0  0  0  0  0  0  0  0  0  0  0  0
   -2.2919   -4.0068   -0.3300 O   0  0  0  0  0  0  0  0  0  0  0  0
    0.9217    2.7102   -3.6065 C   0  0  0  0  0  0  0  0  0  0  0  0
    1.2726    1.3775   -4.2593 C   0  0  0  0  0  0  0  0  0  0  0  0
   -0.2277    3.2608   -4.4541 C   0  0  0  0  0  0  0  0  0  0  0  0
  1  2  1  0
  2  3  1  0
  3  4  2  0
  3  5  1  0
  6  5  1  1
  6  7  1  0
  8  7  1  6
  8  9  2  0
  8 10  1  0
 10 11  1  0
 11 12  1  0
 12 13  1  0
 13 14  1  0
 14 15  2  0
 15 16  1  0
 16 17  2  0
 17 18  1  0
 18 19  2  0
  8 20  1  0
 20 21  1  0
 21 22  2  0
 21 23  1  0
 23 24  1  0
 24 25  1  0
 25 26  1  1
 26 27  1  0
 27 28  1  0
 28 29  1  0
 29 30  1  0
 30 31  1  0
 25 32  1  0
 32 33  1  0
 33 34  1  6
 34 35  2  0
 34 36  1  0
  6 37  1  0
 37 38  1  0
 37 39  1  0
 19 14  1  0
 33 23  1  0
 31 26  1  0
M  END
>  <zinc_id>  (660) 
ZINC000004097310

>  <smiles>  (660) 
CCC(=O)O[C@H](O[P@](=O)(CCCCc1ccccc1)CC(=O)N1C[C@H](C2CCCCC2)C[C@H]1C(=O)O)C(C)C

$$$$

     RDKit          3D

 19 19  0  0  0  0  0  0  0  0999 V2000
    4.9671    0.7128    0.7932 C   0  0  0  0  0  0  0  0  0  0  0  0
    4.5245   -0.4501    1.1768 C   0  0  0  0  0  0  0  0  0  0  0  0
    3.0389   -0.6897    0.9719 C   0  0  0  0  0  0  0  0  0  0  0  0
    2.7062   -0.3429   -0.3663 N   0  0  0  0  0  0  0  0  0  0  0  0
    1.7122   -1.4914   -0.8826 C   0  0  1  0  0  0  0  0  0  0  0  0
    2.6449   -2.7077   -0.2054 C   0  0  0  0  0  0  0  0  0  0  0  0
    0.7693   -1.3805    0.4621 C   0  0  0  0  0  0  0  0  0  0  0  0
    0.1875   -2.4947    0.6450 O   0  0  0  0  0  0  0  0  0  0  0  0
   -0.0952   -0.2808    0.4980 N   0  0  0  0  0  0  0  0  0  0  0  0
   -1.4732   -0.2459    0.1246 C   0  0  0  0  0  0  0  0  0  0  0  0
   -2.4499   -1.1850    0.3634 C   0  0  0  0  0  0  0  0  0  0  0  0
   -2.5714   -1.8988    1.6781 C   0  0  0  0  0  0  0  0  0  0  0  0
   -3.3515   -1.2512   -0.6932 C   0  0  0  0  0  0  0  0  0  0  0  0
   -3.4352    0.4013   -1.1625 S   0  0  0  0  0  0  0  0  0  0  0  0
   -2.0120    0.9427   -0.3667 C   0  0  0  0  0  0  0  0  0  0  0  0
   -1.4294    2.2934   -0.2908 C   0  0  0  0  0  0  0  0  0  0  0  0
   -0.2094    2.4183   -0.5178 O   0  0  0  0  0  0  0  0  0  0  0  0
   -2.1119    3.3294    0.3046 O   0  0  0  0  0  0  0  0  0  0  0  0
   -1.4115    4.3208    1.0012 C   0  0  0  0  0  0  0  0  0  0  0  0
  1  2  1  0
  2  3  1  0
  3  4  1  0
  5  4  1  1
  5  6  1  0
  5  7  1  0
  7  8  2  0
  7  9  1  0
  9 10  1  0
 10 11  1  0
 11 12  1  0
 11 13  2  0
 13 14  1  0
 14 15  1  0
 15 16  1  0
 16 17  2  0
 16 18  1  0
 18 19  1  0
 15 10  2  0
M  END
>  <zinc_id>  (661) 
ZINC000002019953

>  <smiles>  (661) 
CCCN[C@@H](C)C(=O)Nc1c(C)csc1C(=O)OC

$$$$

     RDKit          2D

 58 63  0  0  0  0  0  0  0  0999 V2000
    1.4725   -3.0929    0.0000 C   0  0  0  0  0  0  0  0  0  0  0  0
    2.9662   -2.9556    0.0000 C   0  0  0  0  0  0  0  0  0  0  0  0
    3.8319   -4.1806    0.0000 O   0  0  0  0  0  0  0  0  0  0  0  0
    3.5942   -1.5934    0.0000 O   0  0  0  0  0  0  0  0  0  0  0  0
    5.0879   -1.4562    0.0000 C   0  0  0  0  0  0  0  0  0  0  0  0
    4.8339   -2.9345    0.0000 C   0  0  0  0  0  0  0  0  0  0  0  0
    6.3122   -3.1885    0.0000 O   0  0  0  0  0  0  0  0  0  0  0  0
    6.5662   -1.7102    0.0000 C   0  0  0  0  0  0  0  0  0  0  0  0
    7.5254   -0.5569    0.0000 C   0  0  0  0  0  0  0  0  0  0  0  0
    7.0062    0.8504    0.0000 C   0  0  0  0  0  0  0  0  0  0  0  0
    7.9653    2.0037    0.0000 O   0  0  0  0  0  0  0  0  0  0  0  0
    5.5279    1.1044    0.0000 C   0  0  0  0  0  0  0  0  0  0  0  0
    6.6293    2.1226    0.0000 C   0  0  0  0  0  0  0  0  0  0  0  0
    5.3906    2.5981    0.0000 C   0  0  0  0  0  0  0  0  0  0  0  0
    6.7181    3.2965    0.0000 O   0  0  0  0  0  0  0  0  0  0  0  0
    4.2373    3.5573    0.0000 C   0  0  0  0  0  0  0  0  0  0  0  0
    4.6821    4.9898    0.0000 O   0  0  0  0  0  0  0  0  0  0  0  0
    2.7436    3.4200    0.0000 C   0  0  0  0  0  0  0  0  0  0  0  0
    1.2596    3.6990    0.0000 C   0  0  0  0  0  0  0  0  0  0  0  0
    0.9285    5.1620    0.0000 C   0  0  0  0  0  0  0  0  0  0  0  0
    0.1581    2.6808    0.0000 C   0  0  0  0  0  0  0  0  0  0  0  0
   -1.2744    3.1256    0.0000 O   0  0  0  0  0  0  0  0  0  0  0  0
   -2.3759    2.1074    0.0000 C   0  0  0  0  0  0  0  0  0  0  0  0
   -2.0448    0.6444    0.0000 O   0  0  0  0  0  0  0  0  0  0  0  0
   -3.8084    2.5522    0.0000 C   0  0  0  0  0  0  0  0  0  0  0  0
   -4.1395    4.0152    0.0000 O   0  0  0  0  0  0  0  0  0  0  0  0
   -4.9099    1.5340    0.0000 C   0  0  0  0  0  0  0  0  0  0  0  0
   -4.5788    0.0710    0.0000 N   0  0  0  0  0  0  0  0  0  0  0  0
   -5.6803   -0.9472    0.0000 C   0  0  0  0  0  0  0  0  0  0  0  0
   -7.1128   -0.5024    0.0000 O   0  0  0  0  0  0  0  0  0  0  0  0
   -5.3492   -2.4103    0.0000 O   0  0  0  0  0  0  0  0  0  0  0  0
   -6.4507   -3.4285    0.0000 C   0  0  0  0  0  0  0  0  0  0  0  0
   -5.4325   -4.5299    0.0000 C   0  0  0  0  0  0  0  0  0  0  0  0
   -7.4689   -2.3270    0.0000 C   0  0  0  0  0  0  0  0  0  0  0  0
   -7.5522   -4.4467    0.0000 C   0  0  0  0  0  0  0  0  0  0  0  0
   -6.3424    1.9788    0.0000 C   0  0  0  0  0  0  0  0  0  0  0  0
   -6.6735    3.4418    0.0000 C   0  0  0  0  0  0  0  0  0  0  0  0
   -8.1060    3.8866    0.0000 C   0  0  0  0  0  0  0  0  0  0  0  0
   -9.2075    2.8684    0.0000 C   0  0  0  0  0  0  0  0  0  0  0  0
   -8.8764    1.4054    0.0000 C   0  0  0  0  0  0  0  0  0  0  0  0
   -7.4439    0.9606    0.0000 C   0  0  0  0  0  0  0  0  0  0  0  0
    0.4892    1.2178    0.0000 C   0  0  0  0  0  0  0  0  0  0  0  0
    1.9217    0.7730    0.0000 C   0  0  0  0  0  0  0  0  0  0  0  0
    0.5943    0.0746    0.0000 O   0  0  0  0  0  0  0  0  0  0  0  0
    3.0750   -0.1861    0.0000 C   0  0  0  0  0  0  0  0  0  0  0  0
    2.6302   -1.6187    0.0000 O   0  0  0  0  0  0  0  0  0  0  0  0
    1.1672   -1.9497    0.0000 C   0  0  0  0  0  0  0  0  0  0  0  0
    0.1490   -0.8483    0.0000 O   0  0  0  0  0  0  0  0  0  0  0  0
    0.7224   -3.3823    0.0000 C   0  0  0  0  0  0  0  0  0  0  0  0
   -0.7406   -3.7133    0.0000 C   0  0  0  0  0  0  0  0  0  0  0  0
   -1.1854   -5.1459    0.0000 C   0  0  0  0  0  0  0  0  0  0  0  0
   -0.1672   -6.2473    0.0000 C   0  0  0  0  0  0  0  0  0  0  0  0
    1.2958   -5.9163    0.0000 C   0  0  0  0  0  0  0  0  0  0  0  0
    1.7406   -4.4837    0.0000 C   0  0  0  0  0  0  0  0  0  0  0  0
    4.5687   -0.0489    0.0000 C   0  0  0  0  0  0  0  0  0  0  0  0
    1.7845    2.2667    0.0000 C   0  0  0  0  0  0  0  0  0  0  0  0
    0.6975    2.1477    0.0000 C   0  0  0  0  0  0  0  0  0  0  0  0
    0.6481    3.2458    0.0000 C   0  0  0  0  0  0  0  0  0  0  0  0
  1  2  1  0
  2  3  2  0
  2  4  1  0
  5  4  1  6
  5  6  1  0
  6  7  1  0
  8  7  1  1
  8  9  1  0
  9 10  1  0
 10 11  1  1
 10 12  1  0
 12 13  1  1
 12 14  1  0
 14 15  2  0
 14 16  1  0
 16 17  1  1
 16 18  1  0
 18 19  2  0
 19 20  1  0
 19 21  1  0
 21 22  1  6
 22 23  1  0
 23 24  2  0
 25 23  1  1
 25 26  1  0
 25 27  1  0
 27 28  1  1
 28 29  1  0
 29 30  2  0
 29 31  1  0
 31 32  1  0
 32 33  1  0
 32 34  1  0
 32 35  1  0
 27 36  1  0
 36 37  2  0
 37 38  1  0
 38 39  2  0
 39 40  1  0
 40 41  2  0
 21 42  1  0
 42 43  1  0
 43 44  1  1
 43 45  1  0
 45 46  1  6
 46 47  1  0
 47 48  2  0
 47 49  1  0
 49 50  2  0
 50 51  1  0
 51 52  2  0
 52 53  1  0
 53 54  2  0
 55 45  1  1
 43 56  1  0
 56 57  1  0
 56 58  1  0
  8  5  1  0
 55 12  1  0
 55  5  1  0
 56 18  1  0
 41 36  1  0
 54 49  1  0
M  END
>  <zinc_id>  (662) 
ZINC000085537053

>  <smiles>  (662) 
CC(=O)O[C@@]12CO[C@@H]1C[C@H](O)[C@@]1(C)C(=O)[C@H](O)C3=C(C)[C@@H](OC(=O)[C@H](O)[C@@H](NC(=O)OC(C)(C)C)c4ccccc4)C[C@@](O)([C@@H](OC(=O)c4ccccc4)[C@@H]12)C3(C)C

$$$$
